
##########                                Name:     oleObject80.pdb
##########                DOCK_Rotatable_Bonds:                  14
##########                         Heavy_Atoms:                  51
##########                    Molecular_Weight:             703.283
##########                DOCK_Rotatable_Bonds:                  14
##########                       Formal_Charge:         0.000299793
##########                     HBond_Acceptors:                  10
##########                        HBond_Donors:                   3
##########                         Heavy_Atoms:                  51
##########                          Grid_Score:          -48.459145
##########                     Grid_vdw_energy:          -48.794827
##########                      Grid_es_energy:            0.335681
##########           Internal_energy_repulsive:           29.084259

@<TRIPOS>MOLECULE
oleObject80.pdb
 94 99 1 0 0
SMALL
NO_CHARGES


@<TRIPOS>ATOM
      1 C          -7.2621    2.8185   58.2645 C.ar    1  UNL        -0.0620
      2 C          -7.1254    1.5569   58.8607 C.ar    1  UNL        -0.0590
      3 C          -8.2203    0.9372   59.4938 C.ar    1  UNL        -0.0456
      4 C          -9.4759    1.5954   59.5310 C.ar    1  UNL        -0.0185
      5 C          -9.5974    2.8653   58.9239 C.ar    1  UNL        -0.0565
      6 C          -8.5003    3.4723   58.2955 C.ar    1  UNL        -0.0619
      7 C         -10.6878    0.9463   60.2234 C.3     1  UNL         0.0931
      8 C         -11.6757    1.9606   60.8270 C.ar    1  UNL         0.0683
      9 C         -11.4008    2.6283   62.0474 C.ar    1  UNL        -0.0272
     10 C         -12.3531    3.5385   62.5432 C.ar    1  UNL        -0.0559
     11 C         -13.5324    3.7581   61.8170 C.ar    1  UNL        -0.0435
     12 C         -13.7199    3.0619   60.6142 C.ar    1  UNL         0.0272
     13 N         -12.8153    2.1896   60.1319 N.ar    1  UNL        -0.2587
     14 C         -10.1147    2.3941   62.8322 C.3     1  UNL        -0.0379
     15 N         -11.3499   -0.1194   59.4169 N.am    1  UNL        -0.2918
     16 C         -11.6206    0.0824   58.0587 C.2     1  UNL         0.2180
     17 O         -11.0967    1.0007   57.4493 O.2     1  UNL        -0.2772
     18 C         -12.3105   -1.0763   57.2961 C.3     1  UNL         0.0385
     19 C         -11.2898   -2.1210   56.7812 C.3     1  UNL        -0.0289
     20 C         -10.4766   -1.5886   55.5836 C.3     1  UNL        -0.0010
     21 N         -11.3557   -1.1728   54.4698 N.4     1  UNL        -0.3010
     22 C         -12.3599   -0.1577   54.8697 C.3     1  UNL        -0.0010
     23 C         -13.1839   -0.5879   56.1099 C.3     1  UNL        -0.0289
     24 C         -10.5716   -0.8089   53.2687 C.3     1  UNL         0.0222
     25 C          -9.6168    0.3813   53.4949 C.3     1  UNL         0.0661
     26 O          -8.8394    0.5539   52.2966 O.3     1  UNL        -0.3432
     27 C          -7.6676    1.2841   52.2450 C.ar    1  UNL         0.0937
     28 C          -7.6518    2.6865   52.3868 C.ar    1  UNL        -0.0284
     29 C          -6.4374    3.3897   52.3262 C.ar    1  UNL        -0.0381
     30 C          -5.2219    2.7093   52.1384 C.ar    1  UNL         0.0319
     31 C          -5.2419    1.3106   51.9749 C.ar    1  UNL        -0.0194
     32 C          -6.4536    0.6025   52.0332 C.ar    1  UNL         0.0727
     33 CL         -6.4250   -1.1390   51.8277 Cl      1  UNL        -0.0814
     34 N          -4.0429    3.4489   52.0671 N.pl3   1  UNL        -0.3136
     35 C          -2.7551    3.1029   51.6590 C.ar    1  UNL         0.0489
     36 C          -1.6606    3.3988   52.4907 C.ar    1  UNL         0.0488
     37 N          -0.3882    3.0813   52.1788 N.ar    1  UNL        -0.2543
     38 C          -0.1166    2.4331   51.0248 C.ar    1  UNL         0.0703
     39 C          -1.1682    2.0822   50.1388 C.ar    1  UNL        -0.0339
     40 C          -2.4941    2.4143   50.4602 C.ar    1  UNL        -0.0371
     41 C           1.3272    2.1076   50.7488 C.ar    1  UNL         0.0009
     42 C           1.8035    1.8982   49.4282 C.ar    1  UNL        -0.0402
     43 C           3.1534    1.5921   49.1565 C.ar    1  UNL         0.0375
     44 C           4.0563    1.4905   50.2352 C.ar    1  UNL        -0.0496
     45 C           3.6126    1.6872   51.5503 C.ar    1  UNL        -0.0608
     46 C           2.2672    1.9895   51.8044 C.ar    1  UNL        -0.0528
     47 C           3.5922    1.3799   47.7277 C.2     1  UNL         0.2403
     48 O           4.7310    1.0631   47.4341 O.2     1  UNL        -0.2722
     49 N           2.6477    1.5570   46.7388 N.am    1  UNL        -0.3251
     50 C         -11.6238   -1.4078   60.0923 C.3     1  UNL         0.0037
     51 C          -8.0132   -0.4381   60.1217 C.3     1  UNL        -0.0394
     52 H          -6.4109    3.2865   57.7783 H       1  UNL         0.0623
     53 H          -6.1606    1.0585   58.8287 H       1  UNL         0.0626
     54 H         -10.5472    3.3907   58.9263 H       1  UNL         0.0627
     55 H          -8.6114    4.4484   57.8320 H       1  UNL         0.0623
     56 H         -10.2623    0.4360   61.0911 H       1  UNL         0.0626
     57 H         -12.1829    4.0680   63.4763 H       1  UNL         0.0627
     58 H         -14.2839    4.4546   62.1767 H       1  UNL         0.0639
     59 H         -14.6205    3.2057   60.0188 H       1  UNL         0.0840
     60 H         -10.0830    1.3759   63.2397 H       1  UNL         0.0280
     61 H         -10.0241    3.0888   63.6766 H       1  UNL         0.0280
     62 H          -9.2306    2.5355   62.1984 H       1  UNL         0.0280
     63 H         -12.9908   -1.5745   57.9965 H       1  UNL         0.0402
     64 H         -11.8284   -3.0245   56.4672 H       1  UNL         0.0288
     65 H         -10.6082   -2.4291   57.5812 H       1  UNL         0.0288
     66 H          -9.7954   -2.3804   55.2461 H       1  UNL         0.0431
     67 H          -9.8621   -0.7396   55.9130 H       1  UNL         0.0431
     68 H         -13.0636    0.0265   54.0496 H       1  UNL         0.0431
     69 H         -11.8524    0.7917   55.0808 H       1  UNL         0.0431
     70 H         -13.8513   -1.4059   55.8092 H       1  UNL         0.0288
     71 H         -13.8309    0.2378   56.4325 H       1  UNL         0.0288
     72 H         -11.2600   -0.5344   52.4588 H       1  UNL         0.0455
     73 H          -9.9892   -1.6745   52.9269 H       1  UNL         0.0455
     74 H          -8.9544    0.1788   54.3453 H       1  UNL         0.0586
     75 H         -10.2033    1.2857   53.7010 H       1  UNL         0.0586
     76 H          -8.5707    3.2423   52.5420 H       1  UNL         0.0652
     77 H          -6.4407    4.4706   52.4360 H       1  UNL         0.0644
     78 H          -4.3228    0.7668   51.7810 H       1  UNL         0.0659
     79 H          -4.1359    4.4087   52.3744 H       1  UNL         0.1528
     80 H          -1.8059    3.9172   53.4374 H       1  UNL         0.0861
     81 H          -0.9684    1.5665   49.2060 H       1  UNL         0.0646
     82 H          -3.2992    2.1216   49.7935 H       1  UNL         0.0644
     83 H           1.1109    1.9561   48.5957 H       1  UNL         0.0638
     84 H           5.1034    1.2575   50.0692 H       1  UNL         0.0631
     85 H           4.3137    1.6066   52.3763 H       1  UNL         0.0623
     86 H           1.9568    2.1425   52.8341 H       1  UNL         0.0630
     87 H           2.8994    1.4249   45.7685 H       1  UNL         0.1458
     88 H           1.7056    1.8179   47.0010 H       1  UNL         0.1458
     89 H         -11.4251   -1.3547   61.1678 H       1  UNL         0.0433
     90 H         -10.9872   -2.1963   59.6744 H       1  UNL         0.0433
     91 H         -12.6764   -1.6808   59.9470 H       1  UNL         0.0433
     92 H          -6.9932   -0.8087   59.9607 H       1  UNL         0.0280
     93 H          -8.6973   -1.1790   59.6906 H       1  UNL         0.0280
     94 H          -8.1804   -0.4093   61.2055 H       1  UNL         0.0280
@<TRIPOS>BOND
     1     1     2   ar
     2     1     6   ar
     3     1    52    1
     4     2     3   ar
     5     2    53    1
     6     3     4   ar
     7     3    51    1
     8     4     5   ar
     9     4     7    1
    10     5     6   ar
    11     5    54    1
    12     6    55    1
    13     7     8    1
    14     7    15    1
    15     7    56    1
    16     8     9   ar
    17     8    13   ar
    18     9    10   ar
    19     9    14    1
    20    10    11   ar
    21    10    57    1
    22    11    12   ar
    23    11    58    1
    24    12    13   ar
    25    12    59    1
    26    14    60    1
    27    14    61    1
    28    14    62    1
    29    15    16   am
    30    15    50    1
    31    16    17    2
    32    16    18    1
    33    18    19    1
    34    18    23    1
    35    18    63    1
    36    19    20    1
    37    19    64    1
    38    19    65    1
    39    20    21    1
    40    20    66    1
    41    20    67    1
    42    21    22    1
    43    21    24    1
    44    22    23    1
    45    22    68    1
    46    22    69    1
    47    23    70    1
    48    23    71    1
    49    24    25    1
    50    24    72    1
    51    24    73    1
    52    25    26    1
    53    25    74    1
    54    25    75    1
    55    26    27    1
    56    27    28   ar
    57    27    32   ar
    58    28    29   ar
    59    28    76    1
    60    29    30   ar
    61    29    77    1
    62    30    31   ar
    63    30    34    1
    64    31    32   ar
    65    31    78    1
    66    32    33    1
    67    34    35    1
    68    34    79    1
    69    35    36   ar
    70    35    40   ar
    71    36    37   ar
    72    36    80    1
    73    37    38   ar
    74    38    39   ar
    75    38    41    1
    76    39    40   ar
    77    39    81    1
    78    40    82    1
    79    41    42   ar
    80    41    46   ar
    81    42    43   ar
    82    42    83    1
    83    43    44   ar
    84    43    47    1
    85    44    45   ar
    86    44    84    1
    87    45    46   ar
    88    45    85    1
    89    46    86    1
    90    47    48    2
    91    47    49   am
    92    49    87    1
    93    49    88    1
    94    50    89    1
    95    50    90    1
    96    50    91    1
    97    51    92    1
    98    51    93    1
    99    51    94    1
@<TRIPOS>SUBSTRUCTURE
     1 UNL         1 TEMP              0 ****  ****    0 ROOT


##########                                Name:    ZINC000552360217
##########                DOCK_Rotatable_Bonds:                  13
##########                         Heavy_Atoms:                  27
##########                    Molecular_Weight:             401.484
##########                DOCK_Rotatable_Bonds:                  13
##########                       Formal_Charge:          -0.0100002
##########                     HBond_Acceptors:                  10
##########                        HBond_Donors:                   3
##########                         Heavy_Atoms:                  27
##########                          Grid_Score:          -38.847420
##########                     Grid_vdw_energy:          -36.855991
##########                      Grid_es_energy:           -1.991428
##########           Internal_energy_repulsive:           15.890470

@<TRIPOS>MOLECULE
ZINC000552360217
 54 54 1 0 0
SMALL
USER_CHARGES


@<TRIPOS>ATOM
      1 C1         -5.8203   -0.0983   51.6867 C.3     1  ZINC000552360217    0.0800
      2 N2         -6.3841    1.2514   51.7687 N.am    1  ZINC000552360217   -1.0000
      3 C3         -7.5837    1.4965   52.5732 C.3     1  ZINC000552360217    0.0900
      4 S4         -5.6654    2.5000   50.9521 S.o2    1  ZINC000552360217    2.7000
      5 O5         -5.5568    2.0839   49.5977 O.2     1  ZINC000552360217   -0.9500
      6 O6         -6.3447    3.6832   51.3496 O.2     1  ZINC000552360217   -0.9500
      7 C7         -4.0187    2.6428   51.5623 C.ar    1  ZINC000552360217   -0.6900
      8 C8         -2.9532    2.2516   50.7715 C.ar    1  ZINC000552360217    0.0100
      9 C9         -1.6568    2.3609   51.2430 C.ar    1  ZINC000552360217   -0.1400
     10 C10        -1.4189    2.8613   52.5062 C.ar    1  ZINC000552360217   -0.0300
     11 C11        -2.4896    3.2579   53.3093 C.ar    1  ZINC000552360217   -0.1600
     12 C12        -2.2420    3.7955   54.6641 C.2     1  ZINC000552360217    0.5600
     13 O13        -2.7409    4.8521   54.9993 O.2     1  ZINC000552360217   -0.5300
     14 N14        -1.4632    3.1141   55.5276 N.am    1  ZINC000552360217   -0.7100
     15 C15        -1.2194    3.6459   56.8707 C.3     1  ZINC000552360217    0.1000
     16 C16        -0.7256    2.5396   57.7670 C.2     1  ZINC000552360217    0.5100
     17 O17        -0.9436    1.3821   57.4780 O.2     1  ZINC000552360217   -0.5400
     18 N18        -0.0420    2.8366   58.8900 N.am    1  ZINC000552360217   -0.7200
     19 C19         0.4395    1.7611   59.7605 C.3     1  ZINC000552360217    0.1400
     20 C20         1.1381    2.3661   60.9798 C.3     1  ZINC000552360217    0.1000
     21 C21         2.5861    2.7060   60.6213 C.3     1  ZINC000552360217   -0.1800
     22 C22         0.4061    3.6398   61.4073 C.3     1  ZINC000552360217   -0.1800
     23 O23         1.1220    1.4240   62.0542 O.3     1  ZINC000552360217   -0.3700
     24 C24         1.7234    0.1678   61.7348 C.3     1  ZINC000552360217    0.0600
     25 C25         0.8398   -0.9677   62.2551 C.3     1  ZINC000552360217    0.0800
     26 O26        -0.1389   -1.3000   61.2683 O.3     1  ZINC000552360217   -0.5700
     27 C27        -3.7943    3.1499   52.8258 C.ar    1  ZINC000552360217    0.0400
     28 H28        -6.2696   -0.6294   50.8475 H       1  ZINC000552360217    0.0600
     29 H29        -4.7421   -0.0334   51.5402 H       1  ZINC000552360217    0.0900
     30 H30        -6.0296   -0.6363   52.6113 H       1  ZINC000552360217    0.0800
     31 H31        -7.9104    0.5633   53.0321 H       1  ZINC000552360217    0.0800
     32 H32        -7.3564    2.2243   53.3521 H       1  ZINC000552360217    0.0700
     33 H33        -8.3769    1.8842   51.9340 H       1  ZINC000552360217    0.0600
     34 H34        -3.1340    1.8589   49.7817 H       1  ZINC000552360217    0.1500
     35 H35        -0.8295    2.0534   50.6206 H       1  ZINC000552360217    0.1400
     36 H36        -0.4067    2.9458   52.8731 H       1  ZINC000552360217    0.1400
     37 H37        -1.0641    2.2715   55.2598 H       1  ZINC000552360217    0.4100
     38 H38        -0.4680    4.4339   56.8186 H       1  ZINC000552360217    0.1000
     39 H39        -2.1463    4.0538   57.2738 H       1  ZINC000552360217    0.1000
     40 H40         0.1313    3.7624   59.1218 H       1  ZINC000552360217    0.4100
     41 H41        -0.4044    1.1544   60.0891 H       1  ZINC000552360217    0.0800
     42 H42         1.1438    1.1366   59.2108 H       1  ZINC000552360217    0.0900
     43 H43         2.5984    3.4246   59.8018 H       1  ZINC000552360217    0.0700
     44 H44         3.0839    3.1370   61.4900 H       1  ZINC000552360217    0.0700
     45 H45         3.1077    1.7987   60.3167 H       1  ZINC000552360217    0.0700
     46 H46        -0.6256    3.3976   61.6628 H       1  ZINC000552360217    0.0600
     47 H47         0.9038    4.0708   62.2760 H       1  ZINC000552360217    0.0700
     48 H48         0.4184    4.3583   60.5878 H       1  ZINC000552360217    0.0700
     49 H49         1.8289    0.0798   60.6535 H       1  ZINC000552360217    0.0600
     50 H50         2.7064    0.1064   62.2019 H       1  ZINC000552360217    0.0700
     51 H51         1.4567   -1.8418   62.4637 H       1  ZINC000552360217    0.0600
     52 H52         0.3399   -0.6491   63.1698 H       1  ZINC000552360217    0.0500
     53 H53         0.2354   -1.5783   60.4212 H       1  ZINC000552360217    0.3800
     54 H54        -4.6269    3.4550   53.4423 H       1  ZINC000552360217    0.1500
@<TRIPOS>BOND
     1     1     2    1
     2     1    28    1
     3     1    29    1
     4     1    30    1
     5     2     3    1
     6     2     4   am
     7     3    31    1
     8     3    32    1
     9     3    33    1
    10     4     5    2
    11     4     6    2
    12     4     7    1
    13     7    27   ar
    14     7     8   ar
    15     8     9   ar
    16     8    34    1
    17     9    10   ar
    18     9    35    1
    19    10    11   ar
    20    10    36    1
    21    11    12    1
    22    11    27   ar
    23    12    13    2
    24    12    14   am
    25    14    15    1
    26    14    37    1
    27    15    16    1
    28    15    38    1
    29    15    39    1
    30    16    17    2
    31    16    18   am
    32    18    19    1
    33    18    40    1
    34    19    20    1
    35    19    41    1
    36    19    42    1
    37    20    21    1
    38    20    22    1
    39    20    23    1
    40    21    43    1
    41    21    44    1
    42    21    45    1
    43    22    46    1
    44    22    47    1
    45    22    48    1
    46    23    24    1
    47    24    25    1
    48    24    49    1
    49    24    50    1
    50    25    26    1
    51    25    51    1
    52    25    52    1
    53    26    53    1
    54    27    54    1
@<TRIPOS>SUBSTRUCTURE
     1 ZINC000552360217        1 TEMP              0 ****  ****    0 ROOT


##########                                Name:    ZINC000050607728
##########                DOCK_Rotatable_Bonds:                  10
##########                         Heavy_Atoms:                  31
##########                    Molecular_Weight:             416.476
##########                DOCK_Rotatable_Bonds:                  10
##########                       Formal_Charge:          -0.0199995
##########                     HBond_Acceptors:                   6
##########                        HBond_Donors:                   1
##########                         Heavy_Atoms:                  31
##########                          Grid_Score:          -38.501862
##########                     Grid_vdw_energy:          -37.326923
##########                      Grid_es_energy:           -1.174939
##########           Internal_energy_repulsive:           14.682859

@<TRIPOS>MOLECULE
ZINC000050607728
 55 57 1 0 0
SMALL
USER_CHARGES


@<TRIPOS>ATOM
      1 C1         -0.3093    2.8251   51.0485 C.3     1  ZINC000050607728    0.0800
      2 N2         -1.7377    2.8775   51.3699 N.am    1  ZINC000050607728   -0.6200
      3 C3         -2.1938    3.5910   52.5653 C.3     1  ZINC000050607728    0.0700
      4 C4         -2.6321    2.2692   50.5659 C.2     1  ZINC000050607728    0.5600
      5 O5         -2.2537    1.6773   49.5740 O.2     1  ZINC000050607728   -0.5300
      6 C6         -4.0735    2.3220   50.8902 C.ar    1  ZINC000050607728   -0.1400
      7 C7         -4.8063    3.4830   50.6393 C.ar    1  ZINC000050607728   -0.0800
      8 C8         -6.1513    3.5256   50.9439 C.ar    1  ZINC000050607728   -0.1300
      9 C9         -6.7735    2.4210   51.4974 C.ar    1  ZINC000050607728   -0.0700
     10 C10        -6.0527    1.2669   51.7493 C.ar    1  ZINC000050607728   -0.1100
     11 C11        -6.7387    0.0685   52.3529 C.3     1  ZINC000050607728    0.1100
     12 O12        -7.8186    0.5127   53.2158 O.3     1  ZINC000050607728   -0.3400
     13 C13        -9.0022   -0.1053   53.0780 C.2     1  ZINC000050607728    0.4700
     14 O14        -9.0939   -1.0857   52.3778 O.2     1  ZINC000050607728   -0.5000
     15 C15       -10.2166    0.4238   53.7966 C.3     1  ZINC000050607728    0.2000
     16 H16       -10.1150    1.4998   53.9380 H       1  ZINC000050607728    0.1400
     17 N17       -11.4146    0.1469   53.0000 N.am    1  ZINC000050607728   -0.7100
     18 C18       -11.8149    1.0235   52.0579 C.2     1  ZINC000050607728    0.5700
     19 O19       -11.1812    2.0432   51.8679 O.2     1  ZINC000050607728   -0.5200
     20 C20       -13.0249    0.7448   51.2553 C.ar    1  ZINC000050607728   -0.1400
     21 C21       -13.8982   -0.2756   51.6350 C.ar    1  ZINC000050607728   -0.0800
     22 C22       -15.0257   -0.5302   50.8819 C.ar    1  ZINC000050607728   -0.1300
     23 C23       -15.2915    0.2232   49.7523 C.ar    1  ZINC000050607728   -0.0900
     24 C24       -14.4297    1.2359   49.3702 C.ar    1  ZINC000050607728   -0.1300
     25 C25       -13.3019    1.5048   50.1179 C.ar    1  ZINC000050607728   -0.0600
     26 C26       -10.3391   -0.2498   55.1390 C.ar    1  ZINC000050607728   -0.1000
     27 C27       -10.3543    0.5090   56.2943 C.ar    1  ZINC000050607728   -0.1000
     28 C28       -10.4668   -0.1089   57.5257 C.ar    1  ZINC000050607728   -0.1200
     29 C29       -10.5643   -1.4857   57.6018 C.ar    1  ZINC000050607728   -0.1100
     30 C30       -10.5500   -2.2445   56.4465 C.ar    1  ZINC000050607728   -0.1200
     31 C31       -10.4419   -1.6263   55.2147 C.ar    1  ZINC000050607728   -0.0800
     32 C32        -4.7088    1.2091   51.4436 C.ar    1  ZINC000050607728   -0.0400
     33 H33         0.1372    1.9491   51.5191 H       1  ZINC000050607728    0.0600
     34 H34        -0.1821    2.7614   49.9678 H       1  ZINC000050607728    0.0800
     35 H35         0.1799    3.7258   51.4195 H       1  ZINC000050607728    0.0700
     36 H36        -2.3176    4.6485   52.3321 H       1  ZINC000050607728    0.0600
     37 H37        -3.1472    3.1773   52.8938 H       1  ZINC000050607728    0.0800
     38 H38        -1.4558    3.4781   53.3596 H       1  ZINC000050607728    0.0700
     39 H39        -4.3214    4.3463   50.2078 H       1  ZINC000050607728    0.1400
     40 H40        -6.7195    4.4234   50.7501 H       1  ZINC000050607728    0.1400
     41 H41        -7.8265    2.4596   51.7344 H       1  ZINC000050607728    0.1300
     42 H42        -7.1431   -0.5575   51.5576 H       1  ZINC000050607728    0.0900
     43 H43        -6.0195   -0.5057   52.9371 H       1  ZINC000050607728    0.0900
     44 H44       -11.9196   -0.6674   53.1508 H       1  ZINC000050607728    0.4100
     45 H45       -13.6915   -0.8649   52.5162 H       1  ZINC000050607728    0.1300
     46 H46       -15.7022   -1.3195   51.1746 H       1  ZINC000050607728    0.1300
     47 H47       -16.1754    0.0196   49.1661 H       1  ZINC000050607728    0.1300
     48 H48       -14.6427    1.8201   48.4871 H       1  ZINC000050607728    0.1300
     49 H49       -12.6302    2.2958   49.8186 H       1  ZINC000050607728    0.1400
     50 H50       -10.2782    1.5847   56.2349 H       1  ZINC000050607728    0.1200
     51 H51       -10.4780    0.4839   58.4284 H       1  ZINC000050607728    0.1200
     52 H52       -10.6515   -1.9685   58.5639 H       1  ZINC000050607728    0.1200
     53 H53       -10.6259   -3.3203   56.5059 H       1  ZINC000050607728    0.1300
     54 H54       -10.4307   -2.2191   54.3122 H       1  ZINC000050607728    0.1300
     55 H55        -4.1474    0.3077   51.6403 H       1  ZINC000050607728    0.1300
@<TRIPOS>BOND
     1     1     2    1
     2     1    33    1
     3     1    34    1
     4     1    35    1
     5     2     3    1
     6     2     4   am
     7     3    36    1
     8     3    37    1
     9     3    38    1
    10     4     5    2
    11     4     6    1
    12     6    32   ar
    13     6     7   ar
    14     7     8   ar
    15     7    39    1
    16     8     9   ar
    17     8    40    1
    18     9    10   ar
    19     9    41    1
    20    10    11    1
    21    10    32   ar
    22    11    12    1
    23    11    42    1
    24    11    43    1
    25    12    13    1
    26    13    14    2
    27    13    15    1
    28    15    16    1
    29    15    17    1
    30    15    26    1
    31    17    18   am
    32    17    44    1
    33    18    19    2
    34    18    20    1
    35    20    25   ar
    36    20    21   ar
    37    21    22   ar
    38    21    45    1
    39    22    23   ar
    40    22    46    1
    41    23    24   ar
    42    23    47    1
    43    24    25   ar
    44    24    48    1
    45    25    49    1
    46    26    31   ar
    47    26    27   ar
    48    27    28   ar
    49    27    50    1
    50    28    29   ar
    51    28    51    1
    52    29    30   ar
    53    29    52    1
    54    30    31   ar
    55    30    53    1
    56    31    54    1
    57    32    55    1
@<TRIPOS>SUBSTRUCTURE
     1 ZINC000050607728        1 TEMP              0 ****  ****    0 ROOT


##########                                Name:     oleObject52.pdb
##########                DOCK_Rotatable_Bonds:                  10
##########                         Heavy_Atoms:                  38
##########                    Molecular_Weight:              533.07
##########                DOCK_Rotatable_Bonds:                  10
##########                       Formal_Charge:         0.000300027
##########                     HBond_Acceptors:                   8
##########                        HBond_Donors:                   0
##########                         Heavy_Atoms:                  38
##########                          Grid_Score:          -38.475132
##########                     Grid_vdw_energy:          -38.291965
##########                      Grid_es_energy:           -0.183166
##########           Internal_energy_repulsive:           23.675200

@<TRIPOS>MOLECULE
oleObject52.pdb
 71 74 1 0 0
SMALL
NO_CHARGES


@<TRIPOS>ATOM
      1 C         -15.2938   -3.0747   58.1780 C.ar    1  UNL        -0.0596
      2 C         -15.0639   -2.0615   59.1209 C.ar    1  UNL        -0.0314
      3 C         -14.2979   -0.9272   58.7771 C.ar    1  UNL         0.0800
      4 C         -13.7613   -0.8085   57.4739 C.ar    1  UNL         0.0089
      5 C         -13.9964   -1.8389   56.5383 C.ar    1  UNL        -0.0541
      6 C         -14.7588   -2.9637   56.8875 C.ar    1  UNL        -0.0617
      7 C         -12.9242    0.4269   57.1087 C.3     1  UNL         0.0953
      8 C         -11.6348    0.5303   57.9421 C.ar    1  UNL         0.0684
      9 C         -11.0526    1.7809   58.2688 C.ar    1  UNL        -0.0272
     10 C          -9.8789    1.7913   59.0456 C.ar    1  UNL        -0.0559
     11 C          -9.3285    0.5732   59.4694 C.ar    1  UNL        -0.0435
     12 C          -9.9723   -0.6183   59.1040 C.ar    1  UNL         0.0272
     13 N         -11.0948   -0.6388   58.3616 N.ar    1  UNL        -0.2587
     14 C         -11.6624    3.1041   57.8222 C.3     1  UNL        -0.0379
     15 N         -12.7275    0.6220   55.6438 N.am    1  UNL        -0.2917
     16 C         -11.6507    0.0134   54.9899 C.2     1  UNL         0.2180
     17 O         -11.0217   -0.8774   55.5364 O.2     1  UNL        -0.2772
     18 C         -11.5106    0.2616   53.4662 C.3     1  UNL         0.0385
     19 C         -10.8312   -0.9269   52.7438 C.3     1  UNL        -0.0289
     20 C          -9.3142   -0.9868   53.0249 C.3     1  UNL        -0.0010
     21 N          -8.6409    0.2776   52.6478 N.4     1  UNL        -0.3010
     22 C          -9.2178    1.4601   53.3244 C.3     1  UNL        -0.0010
     23 C         -10.7500    1.5717   53.1295 C.3     1  UNL        -0.0289
     24 C          -7.1674    0.2463   52.7822 C.3     1  UNL         0.0222
     25 C          -6.4501   -0.3423   51.5497 C.3     1  UNL         0.0661
     26 O          -6.1196    0.7486   50.6718 O.3     1  UNL        -0.3432
     27 C          -5.2191    1.7449   50.9956 C.ar    1  UNL         0.0937
     28 C          -3.8574    1.4716   51.2433 C.ar    1  UNL        -0.0289
     29 C          -2.9747    2.5146   51.5695 C.ar    1  UNL        -0.0417
     30 C          -3.4415    3.8378   51.6515 C.ar    1  UNL         0.0537
     31 C          -4.7970    4.1145   51.4051 C.ar    1  UNL        -0.0230
     32 C          -5.6821    3.0735   51.0786 C.ar    1  UNL         0.0721
     33 CL         -7.3663    3.4589   50.7785 Cl      1  UNL        -0.0814
     34 C          -2.5382    4.9013   51.9850 C.1     1  UNL         0.0992
     35 N          -1.8023    5.7512   52.2559 N.1     1  UNL        -0.1924
     36 C         -13.6891    1.5049   54.9482 C.3     1  UNL         0.0037
     37 O         -14.0498    0.0815   59.6924 O.3     1  UNL        -0.3490
     38 C         -14.4824    0.0408   61.0627 C.3     1  UNL         0.0422
     39 H         -15.8840   -3.9454   58.4488 H       1  UNL         0.0624
     40 H         -15.4853   -2.1703   60.1145 H       1  UNL         0.0651
     41 H         -13.5900   -1.7771   55.5347 H       1  UNL         0.0627
     42 H         -14.9337   -3.7486   56.1573 H       1  UNL         0.0623
     43 H         -13.5431    1.2743   57.4239 H       1  UNL         0.0627
     44 H          -9.4032    2.7280   59.3215 H       1  UNL         0.0627
     45 H          -8.4254    0.5521   60.0719 H       1  UNL         0.0639
     46 H          -9.5801   -1.5852   59.4165 H       1  UNL         0.0840
     47 H         -11.8523    3.1086   56.7438 H       1  UNL         0.0280
     48 H         -10.9997    3.9506   58.0410 H       1  UNL         0.0280
     49 H         -12.6148    3.2887   58.3350 H       1  UNL         0.0280
     50 H         -12.5176    0.3801   53.0527 H       1  UNL         0.0402
     51 H         -10.9826   -0.8200   51.6619 H       1  UNL         0.0288
     52 H         -11.3017   -1.8747   53.0295 H       1  UNL         0.0288
     53 H          -8.9012   -1.8288   52.4574 H       1  UNL         0.0431
     54 H          -9.1506   -1.1891   54.0918 H       1  UNL         0.0431
     55 H          -8.7518    2.3741   52.9345 H       1  UNL         0.0431
     56 H          -8.9899    1.4139   54.3967 H       1  UNL         0.0431
     57 H         -10.9433    1.8281   52.0798 H       1  UNL         0.0288
     58 H         -11.1433    2.4022   53.7297 H       1  UNL         0.0288
     59 H          -6.8856   -0.3327   53.6715 H       1  UNL         0.0455
     60 H          -6.7973    1.2700   52.9249 H       1  UNL         0.0455
     61 H          -7.1185   -1.0497   51.0423 H       1  UNL         0.0586
     62 H          -5.5365   -0.8654   51.8566 H       1  UNL         0.0586
     63 H          -3.4719    0.4588   51.1858 H       1  UNL         0.0651
     64 H          -1.9274    2.2925   51.7582 H       1  UNL         0.0638
     65 H          -5.1657    5.1351   51.4665 H       1  UNL         0.0653
     66 H         -14.1021    2.2495   55.6382 H       1  UNL         0.0433
     67 H         -14.5114    0.9096   54.5327 H       1  UNL         0.0433
     68 H         -13.1901    2.0545   54.1417 H       1  UNL         0.0433
     69 H         -14.1561    0.9505   61.5816 H       1  UNL         0.0535
     70 H         -14.0487   -0.8266   61.5762 H       1  UNL         0.0535
     71 H         -15.5768   -0.0168   61.1183 H       1  UNL         0.0535
@<TRIPOS>BOND
     1     1     2   ar
     2     1     6   ar
     3     1    39    1
     4     2     3   ar
     5     2    40    1
     6     3     4   ar
     7     3    37    1
     8     4     5   ar
     9     4     7    1
    10     5     6   ar
    11     5    41    1
    12     6    42    1
    13     7     8    1
    14     7    15    1
    15     7    43    1
    16     8     9   ar
    17     8    13   ar
    18     9    10   ar
    19     9    14    1
    20    10    11   ar
    21    10    44    1
    22    11    12   ar
    23    11    45    1
    24    12    13   ar
    25    12    46    1
    26    14    47    1
    27    14    48    1
    28    14    49    1
    29    15    16   am
    30    15    36    1
    31    16    17    2
    32    16    18    1
    33    18    19    1
    34    18    23    1
    35    18    50    1
    36    19    20    1
    37    19    51    1
    38    19    52    1
    39    20    21    1
    40    20    53    1
    41    20    54    1
    42    21    22    1
    43    21    24    1
    44    22    23    1
    45    22    55    1
    46    22    56    1
    47    23    57    1
    48    23    58    1
    49    24    25    1
    50    24    59    1
    51    24    60    1
    52    25    26    1
    53    25    61    1
    54    25    62    1
    55    26    27    1
    56    27    28   ar
    57    27    32   ar
    58    28    29   ar
    59    28    63    1
    60    29    30   ar
    61    29    64    1
    62    30    31   ar
    63    30    34    1
    64    31    32   ar
    65    31    65    1
    66    32    33    1
    67    34    35    3
    68    36    66    1
    69    36    67    1
    70    36    68    1
    71    37    38    1
    72    38    69    1
    73    38    70    1
    74    38    71    1
@<TRIPOS>SUBSTRUCTURE
     1 UNL         1 TEMP              0 ****  ****    0 ROOT


##########                                Name:    ZINC000508765459
##########                DOCK_Rotatable_Bonds:                  10
##########                         Heavy_Atoms:                  29
##########                    Molecular_Weight:               405.5
##########                DOCK_Rotatable_Bonds:                  10
##########                       Formal_Charge:         -6.4075e-07
##########                     HBond_Acceptors:                  10
##########                        HBond_Donors:                   1
##########                         Heavy_Atoms:                  29
##########                          Grid_Score:          -38.442734
##########                     Grid_vdw_energy:          -38.139904
##########                      Grid_es_energy:           -0.302828
##########           Internal_energy_repulsive:           17.170443

@<TRIPOS>MOLECULE
ZINC000508765459
 60 62 1 0 0
SMALL
USER_CHARGES


@<TRIPOS>ATOM
      1 C1         -1.4591    2.6267   50.7783 C.3     1  ZINC000508765459    0.0300
      2 O2         -2.7449    2.2087   50.3157 O.3     1  ZINC000508765459   -0.3900
      3 C3         -3.8334    2.7048   51.0975 C.3     1  ZINC000508765459    0.0500
      4 C4         -5.1534    2.3938   50.3893 C.3     1  ZINC000508765459    0.1100
      5 N5         -6.0467    1.6864   51.3100 N.am    1  ZINC000508765459   -0.5900
      6 C6         -6.1090    0.2345   51.2115 C.3     1  ZINC000508765459    0.1000
      7 C7         -6.6193   -0.3765   52.5180 C.3     1  ZINC000508765459    0.1200
      8 N8         -7.8069    0.3814   52.9469 N.am    1  ZINC000508765459   -0.6400
      9 C9         -9.0113   -0.2113   53.0669 C.2     1  ZINC000508765459    0.7100
     10 O10        -9.1333   -1.3956   52.8205 O.2     1  ZINC000508765459   -0.5800
     11 N11       -10.0805    0.5090   53.4601 N.am    1  ZINC000508765459   -0.7400
     12 C12       -11.3895   -0.1357   53.5923 C.3     1  ZINC000508765459    0.1400
     13 C13       -12.0721   -0.1892   52.2240 C.3     1  ZINC000508765459   -0.1400
     14 C14       -12.2692    1.2333   51.6964 C.3     1  ZINC000508765459    0.0600
     15 N15       -12.8425    1.1793   50.3451 N.3     1  ZINC000508765459   -0.5400
     16 C16       -12.8695    2.5140   49.7306 C.3     1  ZINC000508765459    0.0500
     17 C17       -13.3981    2.4029   48.2986 C.3     1  ZINC000508765459    0.0700
     18 N18       -14.7421    1.8088   48.3201 N.3     1  ZINC000508765459   -0.4600
     19 C19       -15.2822    1.7579   47.0468 C.ar    1  ZINC000508765459    0.4900
     20 N20       -16.5879    1.9201   46.8911 N.ar    1  ZINC000508765459   -0.5500
     21 C21       -17.1360    1.8775   45.6880 C.ar    1  ZINC000508765459    0.1700
     22 C22       -16.3267    1.6602   44.5839 C.ar    1  ZINC000508765459   -0.2600
     23 C23       -14.9650    1.4946   44.7825 C.ar    1  ZINC000508765459    0.1700
     24 N24       -14.4805    1.5535   46.0119 N.ar    1  ZINC000508765459   -0.5300
     25 C25       -14.7151    0.4742   48.9345 C.3     1  ZINC000508765459    0.0700
     26 C26       -14.1865    0.5853   50.3664 C.3     1  ZINC000508765459    0.0600
     27 C27        -7.6250    1.8110   53.2394 C.3     1  ZINC000508765459    0.1000
     28 C28        -6.7419    2.4166   52.1832 C.2     1  ZINC000508765459    0.5100
     29 O29        -6.6648    3.6252   52.1168 O.2     1  ZINC000508765459   -0.5400
     30 H30        -1.3083    2.2753   51.7991 H       1  ZINC000508765459    0.0400
     31 H31        -0.6870    2.2087   50.1324 H       1  ZINC000508765459    0.0900
     32 H32        -1.4011    3.7150   50.7564 H       1  ZINC000508765459    0.0400
     33 H33        -3.8250    2.2264   52.0768 H       1  ZINC000508765459    0.0500
     34 H34        -3.7315    3.7833   51.2190 H       1  ZINC000508765459    0.0600
     35 H35        -5.6229    3.3244   50.0706 H       1  ZINC000508765459    0.1100
     36 H36        -4.9597    1.7678   49.5181 H       1  ZINC000508765459    0.0900
     37 H37        -6.7817   -0.0415   50.3996 H       1  ZINC000508765459    0.0700
     38 H38        -5.1129   -0.1537   50.9989 H       1  ZINC000508765459    0.1000
     39 H39        -6.8880   -1.4203   52.3555 H       1  ZINC000508765459    0.1200
     40 H40        -5.8449   -0.3102   53.2822 H       1  ZINC000508765459    0.0800
     41 H41        -9.9835    1.4541   53.6556 H       1  ZINC000508765459    0.4000
     42 H42       -11.2588   -1.1487   53.9730 H       1  ZINC000508765459    0.0700
     43 H43       -12.0077    0.4358   54.2846 H       1  ZINC000508765459    0.0700
     44 H44       -11.4487   -0.7516   51.5288 H       1  ZINC000508765459    0.0700
     45 H45       -13.0413   -0.6785   52.3204 H       1  ZINC000508765459    0.0800
     46 H46       -12.9459    1.7753   52.3569 H       1  ZINC000508765459    0.0800
     47 H47       -11.3071    1.7448   51.6628 H       1  ZINC000508765459    0.0400
     48 H48       -13.5221    3.1677   50.3095 H       1  ZINC000508765459    0.0500
     49 H49       -11.8611    2.9275   49.7150 H       1  ZINC000508765459    0.0900
     50 H50       -13.4463    3.3954   47.8507 H       1  ZINC000508765459    0.0900
     51 H51       -12.7307    1.7711   47.7126 H       1  ZINC000508765459    0.0600
     52 H52       -18.2009    2.0102   45.5674 H       1  ZINC000508765459    0.1700
     53 H53       -16.7482    1.6205   43.5902 H       1  ZINC000508765459    0.1500
     54 H54       -14.3071    1.3232   43.9434 H       1  ZINC000508765459    0.1700
     55 H55       -15.7235    0.0605   48.9502 H       1  ZINC000508765459    0.1000
     56 H56       -14.0626   -0.1795   48.3557 H       1  ZINC000508765459    0.0500
     57 H57       -14.1383   -0.4073   50.8143 H       1  ZINC000508765459    0.0900
     58 H58       -14.8541    1.2170   50.9525 H       1  ZINC000508765459    0.0500
     59 H59        -8.5942    2.3099   53.2391 H       1  ZINC000508765459    0.1100
     60 H60        -7.1533    1.9268   54.2152 H       1  ZINC000508765459    0.1100
@<TRIPOS>BOND
     1     1     2    1
     2     1    30    1
     3     1    31    1
     4     1    32    1
     5     2     3    1
     6     3     4    1
     7     3    33    1
     8     3    34    1
     9     4     5    1
    10     4    35    1
    11     4    36    1
    12     5    28   am
    13     5     6    1
    14     6     7    1
    15     6    37    1
    16     6    38    1
    17     7     8    1
    18     7    39    1
    19     7    40    1
    20     8     9   am
    21     8    27    1
    22     9    10    2
    23     9    11   am
    24    11    12    1
    25    11    41    1
    26    12    13    1
    27    12    42    1
    28    12    43    1
    29    13    14    1
    30    13    44    1
    31    13    45    1
    32    14    15    1
    33    14    46    1
    34    14    47    1
    35    15    26    1
    36    15    16    1
    37    16    17    1
    38    16    48    1
    39    16    49    1
    40    17    18    1
    41    17    50    1
    42    17    51    1
    43    18    19    1
    44    18    25    1
    45    19    24   ar
    46    19    20   ar
    47    20    21   ar
    48    21    22   ar
    49    21    52    1
    50    22    23   ar
    51    22    53    1
    52    23    24   ar
    53    23    54    1
    54    25    26    1
    55    25    55    1
    56    25    56    1
    57    26    57    1
    58    26    58    1
    59    27    28    1
    60    27    59    1
    61    27    60    1
    62    28    29    2
@<TRIPOS>SUBSTRUCTURE
     1 ZINC000508765459        1 TEMP              0 ****  ****    0 ROOT


##########                                Name:     oleObject14.pdb
##########                DOCK_Rotatable_Bonds:                   9
##########                         Heavy_Atoms:                  33
##########                    Molecular_Weight:             484.424
##########                DOCK_Rotatable_Bonds:                   9
##########                       Formal_Charge:         0.000299782
##########                     HBond_Acceptors:                   7
##########                        HBond_Donors:                   1
##########                         Heavy_Atoms:                  33
##########                          Grid_Score:          -37.723652
##########                     Grid_vdw_energy:          -37.522919
##########                      Grid_es_energy:           -0.200732
##########           Internal_energy_repulsive:           12.256869

@<TRIPOS>MOLECULE
oleObject14.pdb
 60 63 1 0 0
SMALL
NO_CHARGES


@<TRIPOS>ATOM
      1 C          -3.1454    3.3366   51.2948 C.ar    1  UNL         0.0422
      2 C          -2.8420    1.9672   51.2394 C.ar    1  UNL        -0.0408
      3 C          -3.8625    1.0287   51.0122 C.ar    1  UNL        -0.0288
      4 C          -5.1959    1.4576   50.8390 C.ar    1  UNL         0.0937
      5 C          -5.4916    2.8350   50.8959 C.ar    1  UNL         0.0723
      6 C          -4.4690    3.7711   51.1232 C.ar    1  UNL        -0.0221
      7 CL         -7.1346    3.4113   50.6857 Cl      1  UNL        -0.0814
      8 O          -6.2283    0.5674   50.6135 O.3     1  UNL        -0.3432
      9 C          -6.5309   -0.5375   51.4838 C.3     1  UNL         0.0661
     10 C          -7.0404    0.0416   52.8199 C.3     1  UNL         0.0222
     11 N          -8.4999    0.2849   52.8385 N.4     1  UNL        -0.3010
     12 C          -9.3209   -0.9446   52.9369 C.3     1  UNL        -0.0010
     13 C         -10.8319   -0.6379   52.8382 C.3     1  UNL        -0.0289
     14 C         -11.2982    0.4229   53.8644 C.3     1  UNL         0.0382
     15 C         -10.3680    1.6609   53.8091 C.3     1  UNL        -0.0289
     16 C          -8.8642    1.3010   53.8496 C.3     1  UNL        -0.0010
     17 C         -11.4055   -0.1695   55.2914 C.2     1  UNL         0.2156
     18 O         -12.2710   -0.9713   55.5919 O.2     1  UNL        -0.2774
     19 N         -10.4683    0.1779   56.2559 N.am    1  UNL        -0.3025
     20 C         -10.4059   -0.2794   57.6569 C.3     1  UNL         0.0900
     21 C          -9.5153    0.6011   58.5315 C.ar    1  UNL        -0.0217
     22 C          -9.4249    1.9908   58.3138 C.ar    1  UNL        -0.0568
     23 C          -8.5924    2.7839   59.1203 C.ar    1  UNL        -0.0619
     24 C          -7.8462    2.1952   60.1533 C.ar    1  UNL        -0.0622
     25 C          -7.9356    0.8129   60.3805 C.ar    1  UNL        -0.0619
     26 C          -8.7681    0.0201   59.5738 C.ar    1  UNL        -0.0568
     27 C         -11.7972   -0.4155   58.2681 C.ar    1  UNL         0.0652
     28 C         -12.4364   -1.6671   58.3848 C.ar    1  UNL        -0.0383
     29 C         -13.7210   -1.7267   58.9484 C.ar    1  UNL        -0.0588
     30 C         -14.3226   -0.5325   59.3748 C.ar    1  UNL        -0.0438
     31 C         -13.6156    0.6723   59.2196 C.ar    1  UNL         0.0272
     32 N         -12.3820    0.7313   58.6784 N.ar    1  UNL        -0.2590
     33 CL         -1.8715    4.5035   51.5780 Cl      1  UNL        -0.0843
     34 H          -1.8172    1.6317   51.3720 H       1  UNL         0.0639
     35 H          -3.6050   -0.0248   50.9729 H       1  UNL         0.0652
     36 H          -4.7028    4.8311   51.1662 H       1  UNL         0.0655
     37 H          -5.6300   -1.1401   51.6509 H       1  UNL         0.0586
     38 H          -7.3107   -1.1690   51.0391 H       1  UNL         0.0586
     39 H          -6.5152    0.9901   52.9927 H       1  UNL         0.0455
     40 H          -6.7646   -0.6407   53.6347 H       1  UNL         0.0455
     41 H          -9.1153   -1.4515   53.8889 H       1  UNL         0.0431
     42 H          -9.0687   -1.6419   52.1297 H       1  UNL         0.0431
     43 H         -11.4044   -1.5645   52.9620 H       1  UNL         0.0288
     44 H         -11.0470   -0.2703   51.8265 H       1  UNL         0.0288
     45 H         -12.2844    0.7725   53.5475 H       1  UNL         0.0402
     46 H         -10.6090    2.3493   54.6291 H       1  UNL         0.0288
     47 H         -10.5647    2.2052   52.8762 H       1  UNL         0.0288
     48 H          -8.6045    0.9339   54.8505 H       1  UNL         0.0431
     49 H          -8.2848    2.2177   53.6797 H       1  UNL         0.0431
     50 H          -9.6907    0.7359   55.9270 H       1  UNL         0.1504
     51 H          -9.9750   -1.2887   57.6400 H       1  UNL         0.0624
     52 H          -9.9917    2.4580   57.5138 H       1  UNL         0.0626
     53 H          -8.5251    3.8536   58.9436 H       1  UNL         0.0623
     54 H          -7.2027    2.8087   60.7774 H       1  UNL         0.0623
     55 H          -7.3615    0.3563   61.1817 H       1  UNL         0.0623
     56 H          -8.8318   -1.0486   59.7592 H       1  UNL         0.0626
     57 H         -11.9483   -2.5756   58.0453 H       1  UNL         0.0643
     58 H         -14.2381   -2.6763   59.0518 H       1  UNL         0.0624
     59 H         -15.3152   -0.5384   59.8155 H       1  UNL         0.0639
     60 H         -14.0502    1.6191   59.5379 H       1  UNL         0.0840
@<TRIPOS>BOND
     1     1     2   ar
     2     1     6   ar
     3     1    33    1
     4     2     3   ar
     5     2    34    1
     6     3     4   ar
     7     3    35    1
     8     4     5   ar
     9     4     8    1
    10     5     6   ar
    11     5     7    1
    12     6    36    1
    13     8     9    1
    14     9    10    1
    15     9    37    1
    16     9    38    1
    17    10    11    1
    18    10    39    1
    19    10    40    1
    20    11    12    1
    21    11    16    1
    22    12    13    1
    23    12    41    1
    24    12    42    1
    25    13    14    1
    26    13    43    1
    27    13    44    1
    28    14    15    1
    29    14    17    1
    30    14    45    1
    31    15    16    1
    32    15    46    1
    33    15    47    1
    34    16    48    1
    35    16    49    1
    36    17    18    2
    37    17    19   am
    38    19    20    1
    39    19    50    1
    40    20    21    1
    41    20    27    1
    42    20    51    1
    43    21    22   ar
    44    21    26   ar
    45    22    23   ar
    46    22    52    1
    47    23    24   ar
    48    23    53    1
    49    24    25   ar
    50    24    54    1
    51    25    26   ar
    52    25    55    1
    53    26    56    1
    54    27    28   ar
    55    27    32   ar
    56    28    29   ar
    57    28    57    1
    58    29    30   ar
    59    29    58    1
    60    30    31   ar
    61    30    59    1
    62    31    32   ar
    63    31    60    1
@<TRIPOS>SUBSTRUCTURE
     1 UNL         1 TEMP              0 ****  ****    0 ROOT


##########                                Name:     oleObject42.pdb
##########                DOCK_Rotatable_Bonds:                   9
##########                         Heavy_Atoms:                  36
##########                    Molecular_Weight:             527.493
##########                DOCK_Rotatable_Bonds:                   9
##########                       Formal_Charge:         9.99384e-05
##########                     HBond_Acceptors:                   8
##########                        HBond_Donors:                   0
##########                         Heavy_Atoms:                  36
##########                          Grid_Score:          -37.536850
##########                     Grid_vdw_energy:          -37.196602
##########                      Grid_es_energy:           -0.340247
##########           Internal_energy_repulsive:           38.716412

@<TRIPOS>MOLECULE
oleObject42.pdb
 68 71 1 0 0
SMALL
NO_CHARGES


@<TRIPOS>ATOM
      1 C         -16.5399   -2.2178   57.5690 C.ar    1  UNL        -0.0435
      2 C         -16.7336   -0.8829   57.1853 C.ar    1  UNL        -0.0559
      3 C         -15.6126   -0.0814   56.8987 C.ar    1  UNL        -0.0272
      4 C         -14.3233   -0.6603   57.0111 C.ar    1  UNL         0.0699
      5 N         -14.1506   -1.9504   57.3827 N.ar    1  UNL        -0.2586
      6 C         -15.2289   -2.7090   57.6541 C.ar    1  UNL         0.0272
      7 C         -13.0472    0.1457   56.7143 C.3     1  UNL         0.1101
      8 C         -11.8696   -0.2160   57.6404 C.ar    1  UNL         0.0699
      9 C         -11.0669   -1.3597   57.4003 C.ar    1  UNL        -0.0272
     10 C         -10.0135   -1.6386   58.2915 C.ar    1  UNL        -0.0559
     11 C          -9.7948   -0.7831   59.3807 C.ar    1  UNL        -0.0435
     12 C         -10.6393    0.3246   59.5451 C.ar    1  UNL         0.0272
     13 N         -11.6497    0.5987   58.6992 N.ar    1  UNL        -0.2586
     14 C         -11.3081   -2.2883   56.2151 C.3     1  UNL        -0.0379
     15 N         -12.7038    0.1686   55.2653 N.am    1  UNL        -0.2902
     16 C         -11.5807    0.8261   54.7617 C.2     1  UNL         0.2180
     17 O         -10.9750    1.6274   55.4543 O.2     1  UNL        -0.2772
     18 C         -11.3531    0.7630   53.2314 C.3     1  UNL         0.0385
     19 C         -10.7466   -0.5965   52.8077 C.3     1  UNL        -0.0289
     20 C          -9.2516   -0.7099   53.1753 C.3     1  UNL        -0.0010
     21 N          -8.4693    0.4117   52.6123 N.4     1  UNL        -0.3010
     22 C          -8.9660    1.7484   53.0076 C.3     1  UNL        -0.0010
     23 C         -10.4731    1.9264   52.7035 C.3     1  UNL        -0.0289
     24 C          -7.0044    0.2503   52.7454 C.3     1  UNL         0.0222
     25 C          -6.3141   -0.2975   51.4762 C.3     1  UNL         0.0661
     26 O          -6.1049    0.8039   50.5787 O.3     1  UNL        -0.3432
     27 C          -5.3589    1.8757   51.0036 C.ar    1  UNL         0.0937
     28 C          -4.0912    1.6457   51.5640 C.ar    1  UNL        -0.0288
     29 C          -3.3117    2.7267   52.0078 C.ar    1  UNL        -0.0408
     30 C          -3.8031    4.0379   51.8933 C.ar    1  UNL         0.0422
     31 C          -5.0725    4.2708   51.3382 C.ar    1  UNL        -0.0221
     32 C          -5.8537    3.1908   50.8935 C.ar    1  UNL         0.0723
     33 CL         -7.4370    3.5079   50.2090 Cl      1  UNL        -0.0814
     34 CL         -2.8319    5.3854   52.4466 Cl      1  UNL        -0.0843
     35 C         -13.7042   -0.4055   54.3430 C.3     1  UNL         0.0038
     36 C         -15.8204    1.3694   56.4777 C.3     1  UNL        -0.0379
     37 H         -17.3870   -2.8589   57.7946 H       1  UNL         0.0639
     38 H         -17.7396   -0.4796   57.1106 H       1  UNL         0.0627
     39 H         -15.0347   -3.7400   57.9473 H       1  UNL         0.0840
     40 H         -13.2990    1.1786   56.9684 H       1  UNL         0.0643
     41 H          -9.3732   -2.5035   58.1428 H       1  UNL         0.0627
     42 H          -8.9887   -0.9735   60.0830 H       1  UNL         0.0639
     43 H         -10.5040    1.0137   60.3777 H       1  UNL         0.0840
     44 H         -12.2885   -2.7753   56.2877 H       1  UNL         0.0280
     45 H         -10.5522   -3.0818   56.1638 H       1  UNL         0.0280
     46 H         -11.2680   -1.7402   55.2658 H       1  UNL         0.0280
     47 H         -12.3218    0.8677   52.7324 H       1  UNL         0.0402
     48 H         -10.8504   -0.7103   51.7208 H       1  UNL         0.0288
     49 H         -11.3031   -1.4233   53.2648 H       1  UNL         0.0288
     50 H          -8.8660   -1.6630   52.7911 H       1  UNL         0.0431
     51 H          -9.1546   -0.7266   54.2684 H       1  UNL         0.0431
     52 H          -8.4068    2.5254   52.4710 H       1  UNL         0.0431
     53 H          -8.7970    1.9078   54.0791 H       1  UNL         0.0431
     54 H         -10.5968    1.9899   51.6146 H       1  UNL         0.0288
     55 H         -10.8270    2.8811   53.1133 H       1  UNL         0.0288
     56 H          -6.7888   -0.4283   53.5806 H       1  UNL         0.0455
     57 H          -6.5555    1.2205   52.9943 H       1  UNL         0.0455
     58 H          -6.9488   -1.0542   50.9989 H       1  UNL         0.0586
     59 H          -5.3529   -0.7582   51.7353 H       1  UNL         0.0586
     60 H          -3.7146    0.6307   51.6530 H       1  UNL         0.0652
     61 H          -2.3310    2.5477   52.4395 H       1  UNL         0.0639
     62 H          -5.4505    5.2857   51.2538 H       1  UNL         0.0655
     63 H         -14.2479   -1.2269   54.8260 H       1  UNL         0.0433
     64 H         -13.2062   -0.8005   53.4485 H       1  UNL         0.0433
     65 H         -14.4176    0.3718   54.0420 H       1  UNL         0.0433
     66 H         -16.8861    1.6211   56.4095 H       1  UNL         0.0280
     67 H         -15.3780    1.5653   55.4935 H       1  UNL         0.0280
     68 H         -15.3683    2.0595   57.2003 H       1  UNL         0.0280
@<TRIPOS>BOND
     1     1     2   ar
     2     1     6   ar
     3     1    37    1
     4     2     3   ar
     5     2    38    1
     6     3     4   ar
     7     3    36    1
     8     4     5   ar
     9     4     7    1
    10     5     6   ar
    11     6    39    1
    12     7     8    1
    13     7    15    1
    14     7    40    1
    15     8     9   ar
    16     8    13   ar
    17     9    10   ar
    18     9    14    1
    19    10    11   ar
    20    10    41    1
    21    11    12   ar
    22    11    42    1
    23    12    13   ar
    24    12    43    1
    25    14    44    1
    26    14    45    1
    27    14    46    1
    28    15    16   am
    29    15    35    1
    30    16    17    2
    31    16    18    1
    32    18    19    1
    33    18    23    1
    34    18    47    1
    35    19    20    1
    36    19    48    1
    37    19    49    1
    38    20    21    1
    39    20    50    1
    40    20    51    1
    41    21    22    1
    42    21    24    1
    43    22    23    1
    44    22    52    1
    45    22    53    1
    46    23    54    1
    47    23    55    1
    48    24    25    1
    49    24    56    1
    50    24    57    1
    51    25    26    1
    52    25    58    1
    53    25    59    1
    54    26    27    1
    55    27    28   ar
    56    27    32   ar
    57    28    29   ar
    58    28    60    1
    59    29    30   ar
    60    29    61    1
    61    30    31   ar
    62    30    34    1
    63    31    32   ar
    64    31    62    1
    65    32    33    1
    66    35    63    1
    67    35    64    1
    68    35    65    1
    69    36    66    1
    70    36    67    1
    71    36    68    1
@<TRIPOS>SUBSTRUCTURE
     1 UNL         1 TEMP              0 ****  ****    0 ROOT


##########                                Name:    ZINC000512699033
##########                DOCK_Rotatable_Bonds:                   9
##########                         Heavy_Atoms:                  30
##########                    Molecular_Weight:              405.54
##########                DOCK_Rotatable_Bonds:                   9
##########                       Formal_Charge:           0.0199988
##########                     HBond_Acceptors:                   5
##########                        HBond_Donors:                   2
##########                         Heavy_Atoms:                  30
##########                          Grid_Score:          -37.495243
##########                     Grid_vdw_energy:          -35.267399
##########                      Grid_es_energy:           -2.227843
##########           Internal_energy_repulsive:           14.026881

@<TRIPOS>MOLECULE
ZINC000512699033
 61 64 1 0 0
SMALL
USER_CHARGES


@<TRIPOS>ATOM
      1 O1         -1.8578    5.0976   53.2707 O.2     1  ZINC000512699033   -0.5100
      2 C2         -2.3568    4.3340   54.0701 C.2     1  ZINC000512699033    0.5200
      3 C3         -2.5594    4.7661   55.4995 C.3     1  ZINC000512699033   -0.1500
      4 C4         -2.4402    3.5510   56.4215 C.3     1  ZINC000512699033    0.1300
      5 N5         -1.0379    3.1350   56.5025 N.am    1  ZINC000512699033   -0.7300
      6 C6         -0.5738    2.5443   57.6215 C.2     1  ZINC000512699033    0.5200
      7 O7         -1.3166    2.3586   58.5620 O.2     1  ZINC000512699033   -0.5300
      8 C8          0.8684    2.1147   57.7041 C.3     1  ZINC000512699033   -0.1100
      9 C9          1.7348    3.0775   56.8898 C.3     1  ZINC000512699033   -0.1100
     10 C10         3.1989    2.6413   56.9737 C.3     1  ZINC000512699033   -0.1200
     11 C11         3.6531    2.6578   58.4346 C.3     1  ZINC000512699033   -0.1200
     12 C12         2.7866    1.6949   59.2489 C.3     1  ZINC000512699033   -0.1200
     13 C13         1.3225    2.1311   59.1651 C.3     1  ZINC000512699033   -0.1000
     14 N14        -2.7350    3.1011   53.6788 N.am    1  ZINC000512699033   -0.6600
     15 C15        -2.5469    2.6999   52.3514 C.ar    1  ZINC000512699033    0.1700
     16 C16        -1.2635    2.5043   51.8590 C.ar    1  ZINC000512699033   -0.1400
     17 C17        -1.0812    2.1077   50.5484 C.ar    1  ZINC000512699033   -0.1000
     18 C18        -2.1750    1.9061   49.7271 C.ar    1  ZINC000512699033   -0.1400
     19 C19        -3.4546    2.1001   50.2146 C.ar    1  ZINC000512699033   -0.0900
     20 C20        -3.6438    2.4909   51.5255 C.ar    1  ZINC000512699033   -0.1200
     21 C21        -5.0385    2.7020   52.0559 C.3     1  ZINC000512699033    0.0900
     22 N22        -5.9314    1.6713   51.5095 N.3     1  ZINC000512699033   -0.4700
     23 C23        -5.4672    0.3169   51.8809 C.3     1  ZINC000512699033    0.0500
     24 C24        -6.7884   -0.4808   51.9697 C.3     1  ZINC000512699033   -0.0900
     25 C25        -7.8107    0.5944   52.2798 C.ar    1  ZINC000512699033   -0.1400
     26 C26        -9.1020    0.5185   52.7570 C.ar    1  ZINC000512699033   -0.0800
     27 C27        -9.8346    1.6741   52.9622 C.ar    1  ZINC000512699033   -0.1400
     28 C28        -9.2693    2.9058   52.6881 C.ar    1  ZINC000512699033   -0.0900
     29 C29        -7.9785    2.9870   52.2084 C.ar    1  ZINC000512699033   -0.1400
     30 C30        -7.2351    1.8275   51.9962 C.ar    1  ZINC000512699033    0.0900
     31 H31        -1.8009    5.5016   55.7678 H       1  ZINC000512699033    0.1100
     32 H32        -3.5494    5.2090   55.6083 H       1  ZINC000512699033    0.1000
     33 H33        -2.7994    3.8133   57.4166 H       1  ZINC000512699033    0.0800
     34 H34        -3.0396    2.7324   56.0230 H       1  ZINC000512699033    0.0800
     35 H35        -0.4435    3.2845   55.7507 H       1  ZINC000512699033    0.4000
     36 H36         0.9705    1.1062   57.3032 H       1  ZINC000512699033    0.1000
     37 H37         1.4113    3.0658   55.8490 H       1  ZINC000512699033    0.0700
     38 H38         1.6326    4.0859   57.2908 H       1  ZINC000512699033    0.0700
     39 H39         3.3011    1.6330   56.5727 H       1  ZINC000512699033    0.0600
     40 H40         3.8162    3.3273   56.3936 H       1  ZINC000512699033    0.0700
     41 H41         4.6961    2.3470   58.4944 H       1  ZINC000512699033    0.0600
     42 H42         3.5508    3.6662   58.8356 H       1  ZINC000512699033    0.0600
     43 H43         2.8888    0.6865   58.8480 H       1  ZINC000512699033    0.0600
     44 H44         3.1102    1.7067   60.2898 H       1  ZINC000512699033    0.0700
     45 H45         1.2203    3.1396   59.5660 H       1  ZINC000512699033    0.0700
     46 H46         0.7052    1.4452   59.7452 H       1  ZINC000512699033    0.0700
     47 H47        -3.1378    2.4919   54.3171 H       1  ZINC000512699033    0.4200
     48 H48        -0.4087    2.6623   52.4999 H       1  ZINC000512699033    0.1500
     49 H49        -0.0832    1.9555   50.1648 H       1  ZINC000512699033    0.1300
     50 H50        -2.0298    1.5968   48.7026 H       1  ZINC000512699033    0.1200
     51 H51        -4.3070    1.9417   49.5706 H       1  ZINC000512699033    0.1200
     52 H52        -5.0277    2.6340   53.1437 H       1  ZINC000512699033    0.0600
     53 H53        -5.3956    3.6876   51.7570 H       1  ZINC000512699033    0.0900
     54 H54        -4.8181   -0.0948   51.1080 H       1  ZINC000512699033    0.1000
     55 H55        -4.9597    0.3331   52.8454 H       1  ZINC000512699033    0.0600
     56 H56        -7.0125   -0.9636   51.0184 H       1  ZINC000512699033    0.0900
     57 H57        -6.7432   -1.2142   52.7748 H       1  ZINC000512699033    0.0800
     58 H58        -9.5424   -0.4442   52.9707 H       1  ZINC000512699033    0.1200
     59 H59       -10.8463    1.6141   53.3353 H       1  ZINC000512699033    0.1300
     60 H60        -9.8408    3.8077   52.8499 H       1  ZINC000512699033    0.1300
     61 H61        -7.5427    3.9522   51.9959 H       1  ZINC000512699033    0.1200
@<TRIPOS>BOND
     1     1     2    2
     2     2     3    1
     3     2    14   am
     4     3     4    1
     5     3    31    1
     6     3    32    1
     7     4     5    1
     8     4    33    1
     9     4    34    1
    10     5     6   am
    11     5    35    1
    12     6     7    2
    13     6     8    1
    14     8    13    1
    15     8     9    1
    16     8    36    1
    17     9    10    1
    18     9    37    1
    19     9    38    1
    20    10    11    1
    21    10    39    1
    22    10    40    1
    23    11    12    1
    24    11    41    1
    25    11    42    1
    26    12    13    1
    27    12    43    1
    28    12    44    1
    29    13    45    1
    30    13    46    1
    31    14    15    1
    32    14    47    1
    33    15    20   ar
    34    15    16   ar
    35    16    17   ar
    36    16    48    1
    37    17    18   ar
    38    17    49    1
    39    18    19   ar
    40    18    50    1
    41    19    20   ar
    42    19    51    1
    43    20    21    1
    44    21    22    1
    45    21    52    1
    46    21    53    1
    47    22    30    1
    48    22    23    1
    49    23    24    1
    50    23    54    1
    51    23    55    1
    52    24    25    1
    53    24    56    1
    54    24    57    1
    55    25    30   ar
    56    25    26   ar
    57    26    27   ar
    58    26    58    1
    59    27    28   ar
    60    27    59    1
    61    28    29   ar
    62    28    60    1
    63    29    30   ar
    64    29    61    1
@<TRIPOS>SUBSTRUCTURE
     1 ZINC000512699033        1 TEMP              0 ****  ****    0 ROOT


##########                                Name:     oleObject17.pdb
##########                DOCK_Rotatable_Bonds:                   8
##########                         Heavy_Atoms:                  29
##########                    Molecular_Weight:             435.393
##########                DOCK_Rotatable_Bonds:                   8
##########                       Formal_Charge:         0.000400059
##########                     HBond_Acceptors:                   6
##########                        HBond_Donors:                   0
##########                         Heavy_Atoms:                  29
##########                          Grid_Score:          -37.456554
##########                     Grid_vdw_energy:          -37.135796
##########                      Grid_es_energy:           -0.320760
##########           Internal_energy_repulsive:           16.423697

@<TRIPOS>MOLECULE
oleObject17.pdb
 57 59 1 0 0
SMALL
NO_CHARGES


@<TRIPOS>ATOM
      1 C         -11.9496   -1.2421   57.6929 C.3     1  UNL         0.0391
      2 C         -13.3194   -1.7981   58.0879 C.ar    1  UNL        -0.0277
      3 C         -13.8372   -1.7003   59.4042 C.ar    1  UNL        -0.0463
      4 C         -15.0936   -2.2662   59.6977 C.ar    1  UNL        -0.0590
      5 C         -15.8361   -2.9199   58.7036 C.ar    1  UNL        -0.0620
      6 C         -15.3336   -3.0019   57.3983 C.ar    1  UNL        -0.0619
      7 C         -14.0855   -2.4386   57.0941 C.ar    1  UNL        -0.0572
      8 C         -13.0812   -0.9928   60.5235 C.3     1  UNL        -0.0394
      9 N         -11.9770   -0.5175   56.4043 N.am    1  UNL        -0.3003
     10 C         -11.0471   -0.7957   55.4027 C.2     1  UNL         0.2175
     11 O         -10.4060   -1.8321   55.4403 O.2     1  UNL        -0.2772
     12 C         -11.1700    0.0253   54.0919 C.3     1  UNL         0.0384
     13 C         -10.6641   -0.7513   52.8499 C.3     1  UNL        -0.0289
     14 C          -9.1340   -0.9317   52.8834 C.3     1  UNL        -0.0010
     15 N          -8.4295    0.3660   52.9750 N.4     1  UNL        -0.3010
     16 C          -8.8776    1.2302   54.0921 C.3     1  UNL        -0.0010
     17 C         -10.4193    1.3836   54.1557 C.3     1  UNL        -0.0289
     18 C          -6.9576    0.2430   52.8691 C.3     1  UNL         0.0222
     19 C          -6.4586   -0.0065   51.4269 C.3     1  UNL         0.0661
     20 O          -6.2945    1.2655   50.7777 O.3     1  UNL        -0.3432
     21 C          -5.3112    2.1681   51.1356 C.ar    1  UNL         0.0937
     22 C          -4.0231    1.7498   51.5337 C.ar    1  UNL        -0.0288
     23 C          -3.0477    2.6984   51.8823 C.ar    1  UNL        -0.0408
     24 C          -3.3522    4.0679   51.8386 C.ar    1  UNL         0.0422
     25 C          -4.6319    4.4920   51.4478 C.ar    1  UNL        -0.0221
     26 C          -5.6093    3.5454   51.0977 C.ar    1  UNL         0.0723
     27 CL         -7.1964    4.1087   50.6083 Cl      1  UNL        -0.0814
     28 CL         -2.1343    5.2481   52.2728 Cl      1  UNL        -0.0843
     29 C         -13.0285    0.5054   56.2564 C.3     1  UNL         0.0031
     30 H         -11.2041   -2.0418   57.6213 H       1  UNL         0.0520
     31 H         -11.6095   -0.5675   58.4887 H       1  UNL         0.0520
     32 H         -15.4998   -2.2013   60.7030 H       1  UNL         0.0626
     33 H         -16.8019   -3.3555   58.9437 H       1  UNL         0.0623
     34 H         -15.9083   -3.5022   56.6243 H       1  UNL         0.0623
     35 H         -13.7039   -2.5122   56.0800 H       1  UNL         0.0626
     36 H         -12.8142    0.0314   60.2359 H       1  UNL         0.0280
     37 H         -12.1596   -1.5273   60.7807 H       1  UNL         0.0280
     38 H         -13.6829   -0.9234   61.4381 H       1  UNL         0.0280
     39 H         -12.2340    0.2477   53.9483 H       1  UNL         0.0402
     40 H         -10.9357   -0.1970   51.9422 H       1  UNL         0.0288
     41 H         -11.1494   -1.7295   52.7689 H       1  UNL         0.0288
     42 H          -8.8190   -1.4650   51.9773 H       1  UNL         0.0431
     43 H          -8.8790   -1.5584   53.7455 H       1  UNL         0.0431
     44 H          -8.4295    2.2267   53.9888 H       1  UNL         0.0431
     45 H          -8.5248    0.8173   55.0438 H       1  UNL         0.0431
     46 H         -10.7400    2.0029   53.3081 H       1  UNL         0.0288
     47 H         -10.7021    1.9301   55.0645 H       1  UNL         0.0288
     48 H          -6.6116   -0.5791   53.5087 H       1  UNL         0.0455
     49 H          -6.4913    1.1631   53.2440 H       1  UNL         0.0455
     50 H          -7.1927   -0.6051   50.8755 H       1  UNL         0.0586
     51 H          -5.5040   -0.5460   51.4477 H       1  UNL         0.0586
     52 H          -3.7664    0.6964   51.5783 H       1  UNL         0.0651
     53 H          -2.0577    2.3706   52.1868 H       1  UNL         0.0639
     54 H          -4.8664    5.5522   51.4148 H       1  UNL         0.0655
     55 H         -13.2245    0.9905   57.2210 H       1  UNL         0.0433
     56 H         -13.9557    0.0435   55.8964 H       1  UNL         0.0433
     57 H         -12.7089    1.2777   55.5459 H       1  UNL         0.0433
@<TRIPOS>BOND
     1     1     2    1
     2     1     9    1
     3     1    30    1
     4     1    31    1
     5     2     3   ar
     6     2     7   ar
     7     3     4   ar
     8     3     8    1
     9     4     5   ar
    10     4    32    1
    11     5     6   ar
    12     5    33    1
    13     6     7   ar
    14     6    34    1
    15     7    35    1
    16     8    36    1
    17     8    37    1
    18     8    38    1
    19     9    10   am
    20     9    29    1
    21    10    11    2
    22    10    12    1
    23    12    13    1
    24    12    17    1
    25    12    39    1
    26    13    14    1
    27    13    40    1
    28    13    41    1
    29    14    15    1
    30    14    42    1
    31    14    43    1
    32    15    16    1
    33    15    18    1
    34    16    17    1
    35    16    44    1
    36    16    45    1
    37    17    46    1
    38    17    47    1
    39    18    19    1
    40    18    48    1
    41    18    49    1
    42    19    20    1
    43    19    50    1
    44    19    51    1
    45    20    21    1
    46    21    22   ar
    47    21    26   ar
    48    22    23   ar
    49    22    52    1
    50    23    24   ar
    51    23    53    1
    52    24    25   ar
    53    24    28    1
    54    25    26   ar
    55    25    54    1
    56    26    27    1
    57    29    55    1
    58    29    56    1
    59    29    57    1
@<TRIPOS>SUBSTRUCTURE
     1 UNL         1 TEMP              0 ****  ****    0 ROOT


##########                                Name:    ZINC000474251633
##########                DOCK_Rotatable_Bonds:                   8
##########                         Heavy_Atoms:                  28
##########                    Molecular_Weight:             416.931
##########                DOCK_Rotatable_Bonds:                   8
##########                       Formal_Charge:          0.00999953
##########                     HBond_Acceptors:                   8
##########                        HBond_Donors:                   2
##########                         Heavy_Atoms:                  28
##########                          Grid_Score:          -37.303452
##########                     Grid_vdw_energy:          -36.026703
##########                      Grid_es_energy:           -1.276751
##########           Internal_energy_repulsive:           12.801738

@<TRIPOS>MOLECULE
ZINC000474251633
 49 52 1 0 0
SMALL
USER_CHARGES


@<TRIPOS>ATOM
      1 O1        -10.4924   -2.3097   56.2145 O.2     1  ZINC000474251633   -0.5300
      2 C2        -10.6554   -1.1123   56.3173 C.2     1  ZINC000474251633    0.5100
      3 C3        -11.1081   -0.3084   55.1257 C.3     1  ZINC000474251633    0.1000
      4 N4         -9.9510    0.3454   54.5095 N.am    1  ZINC000474251633   -0.7100
      5 C5         -9.3786   -0.1908   53.4135 C.2     1  ZINC000474251633    0.5900
      6 O6         -9.8237   -1.2171   52.9349 O.2     1  ZINC000474251633   -0.5000
      7 C7         -8.2177    0.4636   52.7969 C.2     1  ZINC000474251633   -0.2300
      8 C8         -8.2029    1.7256   52.3519 C.2     1  ZINC000474251633    0.0400
      9 Cl9        -9.5926    2.7609   52.4567 Cl      1  ZINC000474251633   -0.0100
     10 C10        -6.9869    2.1570   51.7946 C.ar    1  ZINC000474251633   -0.0900
     11 C11        -6.6607    3.4195   51.2453 C.ar    1  ZINC000474251633   -0.0600
     12 C12        -5.4177    3.6549   50.7472 C.ar    1  ZINC000474251633   -0.1200
     13 C13        -4.4458    2.6624   50.7680 C.ar    1  ZINC000474251633   -0.0800
     14 C14        -4.7324    1.4258   51.2945 C.ar    1  ZINC000474251633   -0.0900
     15 C15        -6.0037    1.1597   51.8132 C.ar    1  ZINC000474251633   -0.1200
     16 S16        -6.6571   -0.2993   52.5490 S.3     1  ZINC000474251633    0.1700
     17 N17       -10.4370   -0.5013   57.4987 N.am    1  ZINC000474251633   -0.7200
     18 C18        -9.9969   -1.2828   58.6570 C.3     1  ZINC000474251633    0.2100
     19 C19        -9.2064   -0.3996   59.5878 C.2     1  ZINC000474251633    0.0500
     20 N20        -9.0899   -0.5580   60.8813 N.2     1  ZINC000474251633   -0.2700
     21 N21        -8.2746    0.4681   61.3762 N.pl3   1  ZINC000474251633   -0.3600
     22 C22        -7.8887    0.6630   62.7760 C.3     1  ZINC000474251633    0.1500
     23 C23        -7.9321    2.1634   63.1320 C.3     1  ZINC000474251633   -0.1400
     24 C24        -9.3287    2.3618   63.7715 C.3     1  ZINC000474251633   -0.1300
     25 C25        -9.5177    1.0607   64.5902 C.3     1  ZINC000474251633   -0.1200
     26 C26        -8.8969   -0.0381   63.7032 C.3     1  ZINC000474251633   -0.1400
     27 C27        -7.9073    1.2450   60.3358 C.2     1  ZINC000474251633    0.0600
     28 C28        -8.4655    0.7274   59.2171 C.2     1  ZINC000474251633   -0.2600
     29 H29       -11.5811   -0.9698   54.3997 H       1  ZINC000474251633    0.1100
     30 H30       -11.8237    0.4479   55.4483 H       1  ZINC000474251633    0.1100
     31 H31        -9.5968    1.1642   54.8903 H       1  ZINC000474251633    0.4100
     32 H32        -7.4047    4.2019   51.2212 H       1  ZINC000474251633    0.1300
     33 H33        -5.1835    4.6235   50.3308 H       1  ZINC000474251633    0.1400
     34 H34        -3.4625    2.8632   50.3689 H       1  ZINC000474251633    0.1400
     35 H35        -3.9737    0.6572   51.3078 H       1  ZINC000474251633    0.1400
     36 H36       -10.5712    0.4557   57.5819 H       1  ZINC000474251633    0.4100
     37 H37       -10.8673   -1.6766   59.1817 H       1  ZINC000474251633    0.0900
     38 H38        -9.3705   -2.1092   58.3211 H       1  ZINC000474251633    0.0900
     39 H39        -6.8874    0.2670   62.9456 H       1  ZINC000474251633    0.1100
     40 H40        -7.1467    2.4086   63.8470 H       1  ZINC000474251633    0.0900
     41 H41        -7.8342    2.7718   62.2329 H       1  ZINC000474251633    0.0800
     42 H42        -9.3338    3.2339   64.4253 H       1  ZINC000474251633    0.0800
     43 H43       -10.0966    2.4495   63.0029 H       1  ZINC000474251633    0.0700
     44 H44        -8.9886    1.1278   65.5408 H       1  ZINC000474251633    0.0700
     45 H45       -10.5771    0.8644   64.7554 H       1  ZINC000474251633    0.0700
     46 H46        -9.6732   -0.5234   63.1116 H       1  ZINC000474251633    0.0700
     47 H47        -8.3849   -0.7737   64.3233 H       1  ZINC000474251633    0.0800
     48 H48        -7.2771    2.1208   60.3863 H       1  ZINC000474251633    0.1700
     49 H49        -8.3623    1.1188   58.2159 H       1  ZINC000474251633    0.1500
@<TRIPOS>BOND
     1     1     2    2
     2     2     3    1
     3     2    17   am
     4     3     4    1
     5     3    29    1
     6     3    30    1
     7     4     5   am
     8     4    31    1
     9     5     6    2
    10     5     7    1
    11     7    16    1
    12     7     8    2
    13     8     9    1
    14     8    10    1
    15    10    15   ar
    16    10    11   ar
    17    11    12   ar
    18    11    32    1
    19    12    13   ar
    20    12    33    1
    21    13    14   ar
    22    13    34    1
    23    14    15   ar
    24    14    35    1
    25    15    16    1
    26    17    18    1
    27    17    36    1
    28    18    19    1
    29    18    37    1
    30    18    38    1
    31    19    28    1
    32    19    20    2
    33    20    21    1
    34    21    22    1
    35    21    27    1
    36    22    26    1
    37    22    23    1
    38    22    39    1
    39    23    24    1
    40    23    40    1
    41    23    41    1
    42    24    25    1
    43    24    42    1
    44    24    43    1
    45    25    26    1
    46    25    44    1
    47    25    45    1
    48    26    46    1
    49    26    47    1
    50    27    28    2
    51    27    48    1
    52    28    49    1
@<TRIPOS>SUBSTRUCTURE
     1 ZINC000474251633        1 TEMP              0 ****  ****    0 ROOT


##########                                Name:    ZINC000767361237
##########                DOCK_Rotatable_Bonds:                  10
##########                         Heavy_Atoms:                  30
##########                    Molecular_Weight:             409.439
##########                DOCK_Rotatable_Bonds:                  10
##########                       Formal_Charge:          -0.0300005
##########                     HBond_Acceptors:                   7
##########                        HBond_Donors:                   1
##########                         Heavy_Atoms:                  30
##########                          Grid_Score:          -37.266464
##########                     Grid_vdw_energy:          -36.442589
##########                      Grid_es_energy:           -0.823876
##########           Internal_energy_repulsive:           15.563379

@<TRIPOS>MOLECULE
ZINC000767361237
 53 55 1 0 0
SMALL
USER_CHARGES


@<TRIPOS>ATOM
      1 C1        -12.7284   -2.7648   57.4781 C.3     1  ZINC000767361237   -0.1200
      2 C2        -12.2736   -1.6845   56.5309 C.ar    1  ZINC000767361237   -0.0900
      3 C3        -13.1611   -1.1480   55.6169 C.ar    1  ZINC000767361237   -0.1200
      4 C4        -12.7439   -0.1571   54.7481 C.ar    1  ZINC000767361237   -0.1100
      5 C5        -11.4392    0.2975   54.7934 C.ar    1  ZINC000767361237   -0.0800
      6 C6        -10.9842    1.3774   53.8458 C.3     1  ZINC000767361237   -0.0800
      7 H7        -10.1126    1.8823   54.2620 H       1  ZINC000767361237    0.0900
      8 C8        -12.1136    2.3902   53.6469 C.3     1  ZINC000767361237   -0.1500
      9 C9        -10.6166    0.7522   52.4987 C.3     1  ZINC000767361237    0.1300
     10 H10       -10.6447    1.5177   51.7231 H       1  ZINC000767361237    0.1400
     11 O11       -11.5514   -0.2811   52.1821 O.3     1  ZINC000767361237   -0.5200
     12 C12        -9.2297    0.1680   52.5778 C.2     1  ZINC000767361237    0.4300
     13 O13        -9.0772   -0.9830   52.9125 O.2     1  ZINC000767361237   -0.5000
     14 O14        -8.1638    0.9262   52.2765 O.3     1  ZINC000767361237   -0.3300
     15 C15        -6.9057    0.2362   52.0543 C.3     1  ZINC000767361237    0.0100
     16 C16        -6.0295    1.0671   51.1528 C.2     1  ZINC000767361237    0.3700
     17 O17        -6.4571    1.4672   50.0966 O.2     1  ZINC000767361237   -0.4200
     18 C18        -4.6196    1.3987   51.5692 C.3     1  ZINC000767361237   -0.1800
     19 C19        -4.0863    2.5398   50.7005 C.3     1  ZINC000767361237    0.1200
     20 N20        -2.6528    2.7130   50.9480 N.am    1  ZINC000767361237   -0.5800
     21 C21        -2.1368    3.4171   51.9715 C.2     1  ZINC000767361237    0.5700
     22 O22        -2.7755    4.0010   52.8235 O.2     1  ZINC000767361237   -0.4600
     23 C23        -0.6622    3.3606   51.8859 C.ar    1  ZINC000767361237   -0.1400
     24 C24         0.3718    3.8843   52.6447 C.ar    1  ZINC000767361237   -0.0400
     25 C25         1.6862    3.6360   52.2798 C.ar    1  ZINC000767361237   -0.0900
     26 C26         1.9711    2.8704   51.1652 C.ar    1  ZINC000767361237   -0.0900
     27 C27         0.9466    2.3400   50.3963 C.ar    1  ZINC000767361237   -0.0400
     28 C28        -0.3715    2.5797   50.7487 C.ar    1  ZINC000767361237   -0.1400
     29 C29        -1.6793    2.1840   50.1850 C.2     1  ZINC000767361237    0.5700
     30 O30        -1.8471    1.4978   49.1970 O.2     1  ZINC000767361237   -0.4600
     31 C31       -10.5520   -0.2381   55.7083 C.ar    1  ZINC000767361237   -0.1100
     32 C32       -10.9703   -1.2263   56.5797 C.ar    1  ZINC000767361237   -0.1200
     33 H33       -13.1154   -2.3094   58.3897 H       1  ZINC000767361237    0.0700
     34 H34       -13.5133   -3.3556   57.0057 H       1  ZINC000767361237    0.0700
     35 H35       -11.8856   -3.4108   57.7242 H       1  ZINC000767361237    0.0700
     36 H36       -14.1804   -1.5032   55.5816 H       1  ZINC000767361237    0.1200
     37 H37       -13.4371    0.2615   54.0336 H       1  ZINC000767361237    0.1200
     38 H38       -11.7846    3.1713   52.9615 H       1  ZINC000767361237    0.0800
     39 H39       -12.9854    1.8852   53.2306 H       1  ZINC000767361237    0.0700
     40 H40       -12.3756    2.8356   54.6067 H       1  ZINC000767361237    0.0600
     41 H41       -11.3632   -0.7412   51.3527 H       1  ZINC000767361237    0.3900
     42 H42        -6.4023    0.0820   53.0088 H       1  ZINC000767361237    0.1100
     43 H43        -7.0984   -0.7286   51.5852 H       1  ZINC000767361237    0.1100
     44 H44        -4.6122    1.7045   52.6153 H       1  ZINC000767361237    0.1100
     45 H45        -3.9873    0.5199   51.4430 H       1  ZINC000767361237    0.1100
     46 H46        -4.2474    2.3019   49.6491 H       1  ZINC000767361237    0.1100
     47 H47        -4.6119    3.4618   50.9490 H       1  ZINC000767361237    0.1100
     48 H48         0.1549    4.4835   53.5167 H       1  ZINC000767361237    0.1400
     49 H49         2.4929    4.0440   52.8706 H       1  ZINC000767361237    0.1400
     50 H50         2.9990    2.6843   50.8909 H       1  ZINC000767361237    0.1400
     51 H51         1.1751    1.7420   49.5264 H       1  ZINC000767361237    0.1400
     52 H52        -9.5328    0.1174   55.7439 H       1  ZINC000767361237    0.1200
     53 H53       -10.2772   -1.6447   57.2945 H       1  ZINC000767361237    0.1200
@<TRIPOS>BOND
     1     1     2    1
     2     1    33    1
     3     1    34    1
     4     1    35    1
     5     2    32   ar
     6     2     3   ar
     7     3     4   ar
     8     3    36    1
     9     4     5   ar
    10     4    37    1
    11     5     6    1
    12     5    31   ar
    13     6     7    1
    14     6     8    1
    15     6     9    1
    16     8    38    1
    17     8    39    1
    18     8    40    1
    19     9    10    1
    20     9    11    1
    21     9    12    1
    22    11    41    1
    23    12    13    2
    24    12    14    1
    25    14    15    1
    26    15    16    1
    27    15    42    1
    28    15    43    1
    29    16    17    2
    30    16    18    1
    31    18    19    1
    32    18    44    1
    33    18    45    1
    34    19    20    1
    35    19    46    1
    36    19    47    1
    37    20    29   am
    38    20    21   am
    39    21    22    2
    40    21    23    1
    41    23    28   ar
    42    23    24   ar
    43    24    25   ar
    44    24    48    1
    45    25    26   ar
    46    25    49    1
    47    26    27   ar
    48    26    50    1
    49    27    28   ar
    50    27    51    1
    51    28    29    1
    52    29    30    2
    53    31    32   ar
    54    31    52    1
    55    32    53    1
@<TRIPOS>SUBSTRUCTURE
     1 ZINC000767361237        1 TEMP              0 ****  ****    0 ROOT


##########                                Name:    ZINC001573443776
##########                DOCK_Rotatable_Bonds:                   8
##########                         Heavy_Atoms:                  28
##########                    Molecular_Weight:             386.457
##########                DOCK_Rotatable_Bonds:                   8
##########                       Formal_Charge:          0.00999954
##########                     HBond_Acceptors:                  10
##########                        HBond_Donors:                   3
##########                         Heavy_Atoms:                  28
##########                          Grid_Score:          -37.215046
##########                     Grid_vdw_energy:          -37.064831
##########                      Grid_es_energy:           -0.150216
##########           Internal_energy_repulsive:           29.091167

@<TRIPOS>MOLECULE
ZINC001573443776
 54 56 1 0 0
SMALL
USER_CHARGES


@<TRIPOS>ATOM
      1 C1         -8.2165    0.4751   60.2644 C.3     1  ZINC001573443776   -0.1800
      2 C2         -9.5943    0.1676   60.7917 C.2     1  ZINC001573443776    0.5100
      3 O3         -9.8289    0.2783   61.9765 O.2     1  ZINC001573443776   -0.5400
      4 N4        -10.5658   -0.2304   59.9467 N.am    1  ZINC001573443776   -0.6100
      5 C5        -11.9141   -0.5338   60.4458 C.3     1  ZINC001573443776    0.1100
      6 C6        -12.3083   -1.9385   59.9783 C.3     1  ZINC001573443776   -0.1300
      7 C7        -12.1673   -2.0238   58.4568 C.3     1  ZINC001573443776   -0.1000
      8 C8        -10.7094   -1.7753   58.0632 C.3     1  ZINC001573443776   -0.1200
      9 H9        -10.0706   -2.5128   58.5490 H       1  ZINC001573443776    0.1000
     10 C10       -10.5653   -1.8922   56.5676 C.2     1  ZINC001573443776    0.5200
     11 O11       -10.0245   -2.8644   56.0847 O.2     1  ZINC001573443776   -0.5300
     12 N12       -11.0373   -0.9162   55.7669 N.am    1  ZINC001573443776   -0.7300
     13 C13       -10.8987   -1.0308   54.3129 C.3     1  ZINC001573443776    0.1100
     14 C14       -10.9395    0.3641   53.6853 C.3     1  ZINC001573443776    0.1400
     15 H15       -10.7819    0.2833   52.6099 H       1  ZINC001573443776    0.0900
     16 C16       -12.3027    1.0047   53.9544 C.3     1  ZINC001573443776   -0.1700
     17 N17        -9.8852    1.1947   54.2723 N.pl3   1  ZINC001573443776   -0.7200
     18 C18        -8.6976    1.4007   53.5815 C.ar    1  ZINC001573443776    0.4300
     19 C19        -8.1547    2.6806   53.5147 C.ar    1  ZINC001573443776   -0.2500
     20 C20        -6.9736    2.8768   52.8262 C.ar    1  ZINC001573443776    0.0100
     21 C21        -6.3659    1.7726   52.2192 C.ar    1  ZINC001573443776   -0.1400
     22 C22        -5.0954    1.9316   51.4684 C.2     1  ZINC001573443776    0.2400
     23 N23        -3.8760    1.7578   51.9383 N.2     1  ZINC001573443776   -0.3000
     24 N24        -3.0471    1.9893   50.9792 N.pl3   1  ZINC001573443776   -0.2300
     25 N25        -3.7022    2.3041   49.9167 N.2     1  ZINC001573443776   -0.0500
     26 N26        -4.9648    2.2740   50.1788 N.2     1  ZINC001573443776   -0.2700
     27 C27        -6.9684    0.5230   52.3293 C.ar    1  ZINC001573443776    0.2300
     28 C28        -6.3246   -0.6750   51.6802 C.3     1  ZINC001573443776   -0.1200
     29 N29        -8.0936    0.3755   52.9993 N.ar    1  ZINC001573443776   -0.5400
     30 C30       -10.2986   -0.3634   58.5081 C.3     1  ZINC001573443776    0.1200
     31 H31        -7.5853   -0.4084   60.3602 H       1  ZINC001573443776    0.0900
     32 H32        -8.2845    0.7610   59.2149 H       1  ZINC001573443776    0.0800
     33 H33        -7.7830    1.2950   60.8371 H       1  ZINC001573443776    0.1000
     34 H34       -11.9174   -0.4969   61.5351 H       1  ZINC001573443776    0.1000
     35 H35       -12.6223    0.1947   60.0512 H       1  ZINC001573443776    0.0700
     36 H36       -11.6544   -2.6745   60.4462 H       1  ZINC001573443776    0.0700
     37 H37       -13.3422   -2.1386   60.2597 H       1  ZINC001573443776    0.0800
     38 H38       -12.4708   -3.0147   58.1190 H       1  ZINC001573443776    0.0800
     39 H39       -12.8028   -1.2710   57.9905 H       1  ZINC001573443776    0.0700
     40 H40       -11.4687   -0.1381   56.1531 H       1  ZINC001573443776    0.4000
     41 H41        -9.9483   -1.5086   54.0750 H       1  ZINC001573443776    0.0900
     42 H42       -11.7169   -1.6318   53.9161 H       1  ZINC001573443776    0.0800
     43 H43       -13.0871    0.3866   53.5177 H       1  ZINC001573443776    0.0700
     44 H44       -12.4602    1.0855   55.0300 H       1  ZINC001573443776    0.0700
     45 H45       -12.3318    1.9983   53.5073 H       1  ZINC001573443776    0.0700
     46 H46       -10.0162    1.6009   55.1434 H       1  ZINC001573443776    0.4100
     47 H47        -8.6514    3.5105   53.9952 H       1  ZINC001573443776    0.1400
     48 H48        -6.5301    3.8591   52.7580 H       1  ZINC001573443776    0.1400
     49 H49        -2.0809    1.9351   51.0473 H       1  ZINC001573443776    0.4800
     50 H50        -5.6377   -1.1445   52.3844 H       1  ZINC001573443776    0.0800
     51 H51        -7.0951   -1.3903   51.3926 H       1  ZINC001573443776    0.0800
     52 H52        -5.7753   -0.3568   50.7942 H       1  ZINC001573443776    0.1100
     53 H53       -10.8756    0.3768   57.9538 H       1  ZINC001573443776    0.0800
     54 H54        -9.2350   -0.2160   58.3201 H       1  ZINC001573443776    0.0900
@<TRIPOS>BOND
     1     1     2    1
     2     1    31    1
     3     1    32    1
     4     1    33    1
     5     2     3    2
     6     2     4   am
     7     4    30    1
     8     4     5    1
     9     5     6    1
    10     5    34    1
    11     5    35    1
    12     6     7    1
    13     6    36    1
    14     6    37    1
    15     7     8    1
    16     7    38    1
    17     7    39    1
    18     8     9    1
    19     8    10    1
    20     8    30    1
    21    10    11    2
    22    10    12   am
    23    12    13    1
    24    12    40    1
    25    13    14    1
    26    13    41    1
    27    13    42    1
    28    14    15    1
    29    14    16    1
    30    14    17    1
    31    16    43    1
    32    16    44    1
    33    16    45    1
    34    17    18    1
    35    17    46    1
    36    18    29   ar
    37    18    19   ar
    38    19    20   ar
    39    19    47    1
    40    20    21   ar
    41    20    48    1
    42    21    22    1
    43    21    27   ar
    44    22    26    1
    45    22    23    2
    46    23    24    1
    47    24    25    1
    48    24    49    1
    49    25    26    2
    50    27    28    1
    51    27    29   ar
    52    28    50    1
    53    28    51    1
    54    28    52    1
    55    30    53    1
    56    30    54    1
@<TRIPOS>SUBSTRUCTURE
     1 ZINC001573443776        1 TEMP              0 ****  ****    0 ROOT


##########                                Name:    ZINC000746432885
##########                DOCK_Rotatable_Bonds:                  11
##########                         Heavy_Atoms:                  31
##########                    Molecular_Weight:              419.44
##########                DOCK_Rotatable_Bonds:                  11
##########                       Formal_Charge:           0.0199995
##########                     HBond_Acceptors:                   9
##########                        HBond_Donors:                   2
##########                         Heavy_Atoms:                  31
##########                          Grid_Score:          -37.065151
##########                     Grid_vdw_energy:          -33.585186
##########                      Grid_es_energy:           -3.479965
##########           Internal_energy_repulsive:           15.048539

@<TRIPOS>MOLECULE
ZINC000746432885
 52 54 1 0 0
SMALL
USER_CHARGES


@<TRIPOS>ATOM
      1 C1         -6.9217   -0.2658   52.1971 C.3     1  ZINC000746432885    0.0300
      2 O2         -8.1663    0.3033   52.6087 O.3     1  ZINC000746432885   -0.3200
      3 C3         -8.1433    1.5925   53.0379 C.ar    1  ZINC000746432885    0.1300
      4 C4         -9.1006    2.4911   52.5899 C.ar    1  ZINC000746432885   -0.2000
      5 C5         -9.0750    3.8011   53.0276 C.ar    1  ZINC000746432885   -0.0800
      6 C6         -8.0961    4.2171   53.9110 C.ar    1  ZINC000746432885   -0.1400
      7 C7         -7.1409    3.3234   54.3589 C.ar    1  ZINC000746432885   -0.0600
      8 C8         -6.0756    3.7800   55.3222 C.3     1  ZINC000746432885    0.2300
      9 N9         -6.0609    2.8948   56.4895 N.am    1  ZINC000746432885   -0.6900
     10 C10        -7.0042    3.0221   57.4437 C.2     1  ZINC000746432885    0.5200
     11 O11        -7.8649    3.8711   57.3367 O.2     1  ZINC000746432885   -0.5100
     12 C12        -6.9903    2.1187   58.6325 C.2     1  ZINC000746432885    0.5100
     13 O13        -6.3041    1.1172   58.6259 O.2     1  ZINC000746432885   -0.5100
     14 N14        -7.7395    2.4151   59.7130 N.am    1  ZINC000746432885   -0.6100
     15 C15        -7.7252    1.5661   60.8321 C.2     1  ZINC000746432885    0.0000
     16 C16        -7.6747    1.9561   62.1325 C.2     1  ZINC000746432885    0.0400
     17 N17        -7.6786    0.8397   62.8956 N.pl3   1  ZINC000746432885   -0.3800
     18 C18        -7.6342    0.7972   64.3592 C.3     1  ZINC000746432885    0.2500
     19 C19        -8.6025   -0.1965   64.8509 C.1     1  ZINC000746432885    0.1900
     20 N20        -9.3497   -0.9634   65.2305 N.1     1  ZINC000746432885   -0.3900
     21 N21        -7.7330   -0.2688   62.0412 N.2     1  ZINC000746432885   -0.2800
     22 C22        -7.7666    0.1635   60.8068 C.2     1  ZINC000746432885    0.0700
     23 C23        -4.7315    3.7367   54.6420 C.ar    1  ZINC000746432885   -0.0500
     24 C24        -3.5745    3.7218   55.3988 C.ar    1  ZINC000746432885   -0.1500
     25 C25        -2.3398    3.6816   54.7778 C.ar    1  ZINC000746432885   -0.0700
     26 C26        -2.2594    3.6563   53.3989 C.ar    1  ZINC000746432885   -0.2000
     27 C27        -3.4188    3.6713   52.6373 C.ar    1  ZINC000746432885    0.1300
     28 O28        -3.3424    3.6465   51.2807 O.3     1  ZINC000746432885   -0.3200
     29 C29        -3.2939    2.3616   50.6571 C.3     1  ZINC000746432885    0.0300
     30 C30        -4.6566    3.7063   53.2630 C.ar    1  ZINC000746432885   -0.1300
     31 C31        -7.1658    2.0109   53.9290 C.ar    1  ZINC000746432885   -0.1300
     32 H32        -6.2202   -0.2473   53.0312 H       1  ZINC000746432885    0.0600
     33 H33        -7.0808   -1.2962   51.8790 H       1  ZINC000746432885    0.1000
     34 H34        -6.5148    0.3120   51.3672 H       1  ZINC000746432885    0.0600
     35 H35        -9.8650    2.1669   51.8993 H       1  ZINC000746432885    0.1300
     36 H36        -9.8201    4.5011   52.6792 H       1  ZINC000746432885    0.1300
     37 H37        -8.0773    5.2418   54.2515 H       1  ZINC000746432885    0.1200
     38 H38        -6.2882    4.8000   55.6423 H       1  ZINC000746432885    0.1200
     39 H39        -5.3723    2.2170   56.5756 H       1  ZINC000746432885    0.4200
     40 H40        -8.2886    3.2147   59.7178 H       1  ZINC000746432885    0.4200
     41 H41        -7.6378    2.9739   62.4918 H       1  ZINC000746432885    0.1900
     42 H42        -6.6317    0.5194   64.6844 H       1  ZINC000746432885    0.1300
     43 H43        -7.8868    1.7793   64.7591 H       1  ZINC000746432885    0.1500
     44 H44        -7.8117   -0.4527   59.9211 H       1  ZINC000746432885    0.2100
     45 H45        -3.6352    3.7419   56.4770 H       1  ZINC000746432885    0.1200
     46 H46        -1.4374    3.6704   55.3712 H       1  ZINC000746432885    0.1300
     47 H47        -1.2947    3.6254   52.9143 H       1  ZINC000746432885    0.1300
     48 H48        -3.2345    2.4847   49.5756 H       1  ZINC000746432885    0.1000
     49 H49        -2.4167    1.8194   51.0098 H       1  ZINC000746432885    0.0600
     50 H50        -4.1937    1.8008   50.9101 H       1  ZINC000746432885    0.0600
     51 H51        -5.5606    3.7179   52.6723 H       1  ZINC000746432885    0.1400
     52 H52        -6.4195    1.3132   54.2791 H       1  ZINC000746432885    0.1300
@<TRIPOS>BOND
     1     1     2    1
     2     1    32    1
     3     1    33    1
     4     1    34    1
     5     2     3    1
     6     3    31   ar
     7     3     4   ar
     8     4     5   ar
     9     4    35    1
    10     5     6   ar
    11     5    36    1
    12     6     7   ar
    13     6    37    1
    14     7     8    1
    15     7    31   ar
    16     8     9    1
    17     8    23    1
    18     8    38    1
    19     9    10   am
    20     9    39    1
    21    10    11    2
    22    10    12    1
    23    12    13    2
    24    12    14   am
    25    14    15    1
    26    14    40    1
    27    15    22    1
    28    15    16    2
    29    16    17    1
    30    16    41    1
    31    17    18    1
    32    17    21    1
    33    18    19    1
    34    18    42    1
    35    18    43    1
    36    19    20    3
    37    21    22    2
    38    22    44    1
    39    23    30   ar
    40    23    24   ar
    41    24    25   ar
    42    24    45    1
    43    25    26   ar
    44    25    46    1
    45    26    27   ar
    46    26    47    1
    47    27    28    1
    48    27    30   ar
    49    28    29    1
    50    29    48    1
    51    29    49    1
    52    29    50    1
    53    30    51    1
    54    31    52    1
@<TRIPOS>SUBSTRUCTURE
     1 ZINC000746432885        1 TEMP              0 ****  ****    0 ROOT


##########                                Name:    ZINC000284209281
##########                DOCK_Rotatable_Bonds:                   8
##########                         Heavy_Atoms:                  26
##########                    Molecular_Weight:             353.424
##########                DOCK_Rotatable_Bonds:                   8
##########                       Formal_Charge:          0.00999954
##########                     HBond_Acceptors:                   7
##########                        HBond_Donors:                   1
##########                         Heavy_Atoms:                  26
##########                          Grid_Score:          -37.063950
##########                     Grid_vdw_energy:          -35.496712
##########                      Grid_es_energy:           -1.567239
##########           Internal_energy_repulsive:           15.049099

@<TRIPOS>MOLECULE
ZINC000284209281
 49 51 1 0 0
SMALL
USER_CHARGES


@<TRIPOS>ATOM
      1 O1        -10.4062    0.5875   54.4043 O.2     1  <0>        -0.5100
      2 C2        -10.2030    0.4374   53.2174 C.2     1  <0>         0.5100
      3 N3        -11.1198    0.8491   52.3194 N.am    1  <0>        -0.7000
      4 C4        -12.3644    1.4720   52.7764 C.3     1  <0>         0.1200
      5 C5        -12.9055    2.3937   51.6814 C.3     1  <0>        -0.1000
      6 C6        -13.1580    1.5928   50.4302 C.ar    1  <0>        -0.0400
      7 C7        -13.0272    2.1730   49.1777 C.ar    1  <0>        -0.1700
      8 C8        -13.2670    1.4074   48.0524 C.ar    1  <0>         0.1000
      9 N9        -13.6165    0.1405   48.1605 N.ar    1  <0>        -0.4900
     10 C10       -13.7503   -0.4442   49.3349 C.ar    1  <0>         0.1000
     11 C11       -13.5210    0.2568   50.5037 C.ar    1  <0>        -0.1700
     12 C12        -8.9332   -0.1981   52.7512 C.2     1  <0>         0.5100
     13 O13        -8.9267   -1.3632   52.4118 O.2     1  <0>        -0.5200
     14 N14        -7.7952    0.5227   52.7079 N.am    1  <0>        -0.5800
     15 C15        -6.5361   -0.0815   52.2468 C.3     1  <0>         0.0800
     16 C16        -5.9281    0.8229   51.1693 C.3     1  <0>         0.0400
     17 N17        -5.8058    2.1897   51.6937 N.3     1  <0>        -0.5300
     18 C18        -5.0710    3.0494   50.7561 C.3     1  <0>         0.1000
     19 C19        -3.6008    2.7253   50.8241 C.ar    1  <0>         0.1300
     20 C20        -2.8495    3.1821   51.8900 C.ar    1  <0>        -0.1500
     21 C21        -1.4976    2.8779   51.9434 C.ar    1  <0>        -0.0700
     22 C22        -0.9503    2.1225   50.9179 C.ar    1  <0>        -0.1700
     23 C23        -1.7645    1.7006   49.8837 C.ar    1  <0>         0.1000
     24 N24        -3.0474    2.0045   49.8684 N.ar    1  <0>        -0.4800
     25 C25        -7.1226    2.7593   52.0088 C.3     1  <0>         0.0400
     26 C26        -7.7808    1.9360   53.1148 C.3     1  <0>         0.1100
     27 H27       -10.9555    0.7328   51.3705 H       1  <0>         0.4100
     28 H28       -13.0994    0.6974   52.9953 H       1  <0>         0.0800
     29 H29       -12.1701    2.0536   53.6776 H       1  <0>         0.0800
     30 H30       -13.8381    2.8475   52.0167 H       1  <0>         0.0900
     31 H31       -12.1757    3.1757   51.4714 H       1  <0>         0.0900
     32 H32       -12.7419    3.2104   49.0826 H       1  <0>         0.1400
     33 H33       -13.1673    1.8518   47.0731 H       1  <0>         0.1600
     34 H34       -14.0385   -1.4839   49.3837 H       1  <0>         0.1600
     35 H35       -13.6319   -0.2278   51.4625 H       1  <0>         0.1400
     36 H36        -5.8439   -0.1695   53.0842 H       1  <0>         0.0800
     37 H37        -6.7351   -1.0677   51.8274 H       1  <0>         0.1400
     38 H38        -4.9417    0.4490   50.8948 H       1  <0>         0.0900
     39 H39        -6.5735    0.8267   50.2909 H       1  <0>         0.0400
     40 H40        -5.4348    2.8766   49.7432 H       1  <0>         0.0900
     41 H41        -5.2255    4.0946   51.0242 H       1  <0>         0.0600
     42 H42        -3.3092    3.7688   52.6715 H       1  <0>         0.1400
     43 H43        -0.8855    3.2217   52.7641 H       1  <0>         0.1400
     44 H44         0.0990    1.8672   50.9268 H       1  <0>         0.1400
     45 H45        -1.3457    1.1120   49.0808 H       1  <0>         0.1600
     46 H46        -7.0026    3.7898   52.3431 H       1  <0>         0.1000
     47 H47        -7.7515    2.7362   51.1188 H       1  <0>         0.0400
     48 H48        -8.8018    2.2839   53.2719 H       1  <0>         0.1000
     49 H49        -7.2097    2.0394   54.0374 H       1  <0>         0.0800
@<TRIPOS>BOND
     1     1     2    2
     2     2     3   am
     3     2    12    1
     4     3     4    1
     5     3    27    1
     6     4     5    1
     7     4    28    1
     8     4    29    1
     9     5     6    1
    10     5    30    1
    11     5    31    1
    12     6    11   ar
    13     6     7   ar
    14     7     8   ar
    15     7    32    1
    16     8     9   ar
    17     8    33    1
    18     9    10   ar
    19    10    11   ar
    20    10    34    1
    21    11    35    1
    22    12    13    2
    23    12    14   am
    24    14    26    1
    25    14    15    1
    26    15    16    1
    27    15    36    1
    28    15    37    1
    29    16    17    1
    30    16    38    1
    31    16    39    1
    32    17    18    1
    33    17    25    1
    34    18    19    1
    35    18    40    1
    36    18    41    1
    37    19    24   ar
    38    19    20   ar
    39    20    21   ar
    40    20    42    1
    41    21    22   ar
    42    21    43    1
    43    22    23   ar
    44    22    44    1
    45    23    24   ar
    46    23    45    1
    47    25    26    1
    48    25    46    1
    49    25    47    1
    50    26    48    1
    51    26    49    1
@<TRIPOS>SUBSTRUCTURE
     1 <0>         1 TEMP              0 ****  ****    0 ROOT


##########                                Name:    ZINC001461256440
##########                DOCK_Rotatable_Bonds:                  13
##########                         Heavy_Atoms:                  26
##########                    Molecular_Weight:             367.445
##########                DOCK_Rotatable_Bonds:                  13
##########                       Formal_Charge:        -6.37025e-07
##########                     HBond_Acceptors:                   8
##########                        HBond_Donors:                   1
##########                         Heavy_Atoms:                  26
##########                          Grid_Score:          -37.044205
##########                     Grid_vdw_energy:          -36.170547
##########                      Grid_es_energy:           -0.873658
##########           Internal_energy_repulsive:           34.736858

@<TRIPOS>MOLECULE
ZINC001461256440
 55 55 1 0 0
SMALL
USER_CHARGES


@<TRIPOS>ATOM
      1 C1         -1.4009    2.3106   57.3985 C.3     1  ZINC001461256440   -0.1500
      2 C2         -1.3195    3.4736   56.4075 C.3     1  ZINC001461256440    0.0600
      3 O3         -2.0948    3.1544   55.2220 O.3     1  ZINC001461256440   -0.3600
      4 C4         -2.2305    4.1236   54.3035 C.2     1  ZINC001461256440    0.4400
      5 O5         -1.6652    5.1809   54.4528 O.2     1  ZINC001461256440   -0.4800
      6 C6         -3.0881    3.8930   53.0859 C.3     1  ZINC001461256440    0.1400
      7 N7         -2.3122    3.1768   52.0705 N.pl3   1  ZINC001461256440   -0.3800
      8 N8         -1.0705    3.5683   51.5540 N.2     1  ZINC001461256440   -0.2800
      9 C9         -0.6924    2.6798   50.6709 C.2     1  ZINC001461256440    0.1000
     10 C10         0.5869    2.7156   49.8752 C.3     1  ZINC001461256440   -0.0700
     11 C11        -1.6773    1.6914   50.5927 C.2     1  ZINC001461256440   -0.2700
     12 C12        -2.6653    2.0172   51.4702 C.2     1  ZINC001461256440    0.3100
     13 N13        -3.8337    1.2916   51.7022 N.am    1  ZINC001461256440   -0.6500
     14 C14        -4.8785    1.4089   50.8590 C.2     1  ZINC001461256440    0.5200
     15 O15        -4.8022    2.1444   49.8975 O.2     1  ZINC001461256440   -0.5000
     16 C16        -6.1414    0.6263   51.1106 C.3     1  ZINC001461256440   -0.1300
     17 C17        -6.9681    1.3259   52.1914 C.3     1  ZINC001461256440   -0.1100
     18 C18        -7.9624    0.3325   52.7958 C.3     1  ZINC001461256440   -0.1100
     19 C19        -8.8207    1.0438   53.8439 C.3     1  ZINC001461256440   -0.1200
     20 C20        -9.8108    0.0692   54.4278 C.2     1  ZINC001461256440    0.4600
     21 O21       -10.2230   -0.8478   53.7577 O.2     1  ZINC001461256440   -0.5000
     22 O22       -10.2347    0.2198   55.6925 O.3     1  ZINC001461256440   -0.3500
     23 C23       -11.1614   -0.7761   56.2001 C.3     1  ZINC001461256440    0.1200
     24 C24       -10.5147   -2.1605   56.1234 C.3     1  ZINC001461256440   -0.1800
     25 C25       -11.5083   -0.4551   57.6553 C.3     1  ZINC001461256440   -0.1400
     26 C26       -12.4378   -0.7619   55.3566 C.3     1  ZINC001461256440   -0.1800
     27 H27        -0.8189    2.5503   58.2885 H       1  ZINC001461256440    0.0800
     28 H28        -2.4410    2.1440   57.6785 H       1  ZINC001461256440    0.0700
     29 H29        -1.0007    1.4092   56.9345 H       1  ZINC001461256440    0.0700
     30 H30        -1.7198    4.3750   56.8716 H       1  ZINC001461256440    0.0700
     31 H31        -0.2794    3.6402   56.1275 H       1  ZINC001461256440    0.0700
     32 H32        -3.9597    3.2999   53.3625 H       1  ZINC001461256440    0.1300
     33 H33        -3.4142    4.8524   52.6842 H       1  ZINC001461256440    0.1400
     34 H34         1.3704    2.1920   50.4230 H       1  ZINC001461256440    0.0800
     35 H35         0.4297    2.2295   48.9125 H       1  ZINC001461256440    0.0800
     36 H36         0.8860    3.7515   49.7147 H       1  ZINC001461256440    0.0700
     37 H37        -1.6564    0.8219   49.9523 H       1  ZINC001461256440    0.1800
     38 H38        -3.8942    0.7025   52.4705 H       1  ZINC001461256440    0.4100
     39 H39        -6.7221    0.5678   50.1900 H       1  ZINC001461256440    0.1000
     40 H40        -5.8854   -0.3796   51.4431 H       1  ZINC001461256440    0.1000
     41 H41        -6.3048    1.6970   52.9727 H       1  ZINC001461256440    0.0800
     42 H42        -7.5117    2.1608   51.7494 H       1  ZINC001461256440    0.0800
     43 H43        -8.6041   -0.0636   52.0087 H       1  ZINC001461256440    0.0700
     44 H44        -7.4178   -0.4858   53.2668 H       1  ZINC001461256440    0.0700
     45 H45        -8.1802    1.4300   54.6367 H       1  ZINC001461256440    0.1100
     46 H46        -9.3566    1.8692   53.3752 H       1  ZINC001461256440    0.1100
     47 H47        -9.6054   -2.1706   56.7244 H       1  ZINC001461256440    0.0600
     48 H48       -11.2104   -2.9082   56.5045 H       1  ZINC001461256440    0.0700
     49 H49       -10.2675   -2.3892   55.0867 H       1  ZINC001461256440    0.0800
     50 H50       -11.9690    0.5312   57.7100 H       1  ZINC001461256440    0.0700
     51 H51       -12.2039   -1.2027   58.0363 H       1  ZINC001461256440    0.0800
     52 H52       -10.5989   -0.4652   58.2563 H       1  ZINC001461256440    0.0700
     53 H53       -12.1906   -0.9906   54.3199 H       1  ZINC001461256440    0.0800
     54 H54       -13.1334   -1.5095   55.7376 H       1  ZINC001461256440    0.0700
     55 H55       -12.8985    0.2243   55.4112 H       1  ZINC001461256440    0.0600
@<TRIPOS>BOND
     1     1     2    1
     2     1    27    1
     3     1    28    1
     4     1    29    1
     5     2     3    1
     6     2    30    1
     7     2    31    1
     8     3     4    1
     9     4     5    2
    10     4     6    1
    11     6     7    1
    12     6    32    1
    13     6    33    1
    14     7    12    1
    15     7     8    1
    16     8     9    2
    17     9    10    1
    18     9    11    1
    19    10    34    1
    20    10    35    1
    21    10    36    1
    22    11    12    2
    23    11    37    1
    24    12    13    1
    25    13    14   am
    26    13    38    1
    27    14    15    2
    28    14    16    1
    29    16    17    1
    30    16    39    1
    31    16    40    1
    32    17    18    1
    33    17    41    1
    34    17    42    1
    35    18    19    1
    36    18    43    1
    37    18    44    1
    38    19    20    1
    39    19    45    1
    40    19    46    1
    41    20    21    2
    42    20    22    1
    43    22    23    1
    44    23    24    1
    45    23    25    1
    46    23    26    1
    47    24    47    1
    48    24    48    1
    49    24    49    1
    50    25    50    1
    51    25    51    1
    52    25    52    1
    53    26    53    1
    54    26    54    1
    55    26    55    1
@<TRIPOS>SUBSTRUCTURE
     1 ZINC001461256440        1 TEMP              0 ****  ****    0 ROOT


##########                                Name:     oleObject27.pdb
##########                DOCK_Rotatable_Bonds:                   9
##########                         Heavy_Atoms:                  35
##########                    Molecular_Weight:             513.466
##########                DOCK_Rotatable_Bonds:                   9
##########                       Formal_Charge:         0.000199873
##########                     HBond_Acceptors:                   8
##########                        HBond_Donors:                   1
##########                         Heavy_Atoms:                  35
##########                          Grid_Score:          -37.018501
##########                     Grid_vdw_energy:          -36.694603
##########                      Grid_es_energy:           -0.323897
##########           Internal_energy_repulsive:           22.186573

@<TRIPOS>MOLECULE
oleObject27.pdb
 65 68 1 0 0
SMALL
NO_CHARGES


@<TRIPOS>ATOM
      1 C         -15.4921    1.8718   46.1924 C.ar    1  UNL        -0.0620
      2 C         -16.7654    1.5340   46.6733 C.ar    1  UNL        -0.0590
      3 C         -16.9170    0.8820   47.9126 C.ar    1  UNL        -0.0456
      4 C         -15.7712    0.5698   48.6860 C.ar    1  UNL        -0.0187
      5 C         -14.4951    0.9064   48.1833 C.ar    1  UNL        -0.0565
      6 C         -14.3555    1.5544   46.9471 C.ar    1  UNL        -0.0619
      7 C         -15.8980   -0.1395   50.0436 C.3     1  UNL         0.0921
      8 C         -16.5104   -1.5386   49.9241 C.ar    1  UNL         0.0681
      9 C         -15.9775   -2.5240   49.0557 C.ar    1  UNL        -0.0272
     10 C         -16.6121   -3.7793   49.0006 C.ar    1  UNL        -0.0559
     11 C         -17.7470   -4.0071   49.7926 C.ar    1  UNL        -0.0435
     12 C         -18.2152   -2.9684   50.6111 C.ar    1  UNL         0.0272
     13 N         -17.6153   -1.7648   50.6714 N.ar    1  UNL        -0.2587
     14 C         -14.7581   -2.2642   48.1786 C.3     1  UNL        -0.0379
     15 N         -14.6264   -0.2007   50.7788 N.am    1  UNL        -0.2865
     16 C         -14.5310   -0.4028   52.1438 C.2     1  UNL         0.3014
     17 O         -15.5200   -0.5422   52.8442 O.2     1  UNL        -0.2541
     18 N         -13.2336   -0.4298   52.6589 N.am    1  UNL        -0.2833
     19 C         -12.0325   -0.2532   51.7976 C.3     1  UNL         0.0284
     20 C         -10.6926   -0.6700   52.4513 C.3     1  UNL         0.0142
     21 N         -10.5507   -0.1571   53.8251 N.4     1  UNL        -0.2979
     22 C         -11.6591   -0.6705   54.6540 C.3     1  UNL         0.0142
     23 C         -13.0412   -0.2329   54.1167 C.3     1  UNL         0.0284
     24 C         -10.3301    1.3082   53.8783 C.3     1  UNL         0.0223
     25 C          -8.8388    1.7000   53.8683 C.3     1  UNL         0.0661
     26 O          -8.2607    1.1813   52.6576 O.3     1  UNL        -0.3432
     27 C          -7.0289    1.5728   52.1694 C.ar    1  UNL         0.0937
     28 C          -6.7902    2.8839   51.7046 C.ar    1  UNL        -0.0288
     29 C          -5.5222    3.2406   51.2160 C.ar    1  UNL        -0.0408
     30 C          -4.4870    2.2930   51.1885 C.ar    1  UNL         0.0422
     31 C          -4.7164    0.9871   51.6493 C.ar    1  UNL        -0.0221
     32 C          -5.9832    0.6275   52.1385 C.ar    1  UNL         0.0723
     33 CL         -6.2369   -1.0123   52.7064 Cl      1  UNL        -0.0814
     34 CL         -2.9081    2.7407   50.5791 Cl      1  UNL        -0.0843
     35 C         -18.3232    0.5227   48.3809 C.3     1  UNL        -0.0394
     36 H         -15.3871    2.3731   45.2345 H       1  UNL         0.0623
     37 H         -17.6390    1.7792   46.0761 H       1  UNL         0.0626
     38 H         -13.6004    0.6600   48.7474 H       1  UNL         0.0627
     39 H         -13.3671    1.8076   46.5749 H       1  UNL         0.0623
     40 H         -16.5666    0.4714   50.6571 H       1  UNL         0.0625
     41 H         -16.2356   -4.5649   48.3515 H       1  UNL         0.0627
     42 H         -18.2569   -4.9656   49.7688 H       1  UNL         0.0639
     43 H         -19.0963   -3.1029   51.2374 H       1  UNL         0.0840
     44 H         -14.8928   -1.3600   47.5717 H       1  UNL         0.0280
     45 H         -14.5719   -3.0960   47.4876 H       1  UNL         0.0280
     46 H         -13.8550   -2.1342   48.7877 H       1  UNL         0.0280
     47 H         -13.7730   -0.0446   50.2612 H       1  UNL         0.1521
     48 H         -11.9744    0.8048   51.5114 H       1  UNL         0.0484
     49 H         -12.1444   -0.8408   50.8781 H       1  UNL         0.0484
     50 H          -9.8580   -0.3266   51.8268 H       1  UNL         0.0447
     51 H         -10.6493   -1.7668   52.4751 H       1  UNL         0.0447
     52 H         -11.5531   -0.3545   55.6983 H       1  UNL         0.0447
     53 H         -11.6246   -1.7677   54.6503 H       1  UNL         0.0447
     54 H         -13.1887    0.8320   54.3365 H       1  UNL         0.0484
     55 H         -13.8125   -0.7907   54.6632 H       1  UNL         0.0484
     56 H         -10.8017    1.7364   54.7718 H       1  UNL         0.0455
     57 H         -10.8040    1.7729   53.0040 H       1  UNL         0.0455
     58 H          -8.3404    1.2671   54.7450 H       1  UNL         0.0586
     59 H          -8.7344    2.7914   53.8954 H       1  UNL         0.0586
     60 H          -7.5755    3.6326   51.7172 H       1  UNL         0.0652
     61 H          -5.3436    4.2511   50.8594 H       1  UNL         0.0639
     62 H          -3.9145    0.2545   51.6276 H       1  UNL         0.0655
     63 H         -19.0759    0.7467   47.6147 H       1  UNL         0.0280
     64 H         -18.5953    1.0875   49.2812 H       1  UNL         0.0280
     65 H         -18.4028   -0.5471   48.6099 H       1  UNL         0.0280
@<TRIPOS>BOND
     1     1     2   ar
     2     1     6   ar
     3     1    36    1
     4     2     3   ar
     5     2    37    1
     6     3     4   ar
     7     3    35    1
     8     4     5   ar
     9     4     7    1
    10     5     6   ar
    11     5    38    1
    12     6    39    1
    13     7     8    1
    14     7    15    1
    15     7    40    1
    16     8     9   ar
    17     8    13   ar
    18     9    10   ar
    19     9    14    1
    20    10    11   ar
    21    10    41    1
    22    11    12   ar
    23    11    42    1
    24    12    13   ar
    25    12    43    1
    26    14    44    1
    27    14    45    1
    28    14    46    1
    29    15    16   am
    30    15    47    1
    31    16    17    2
    32    16    18   am
    33    18    19    1
    34    18    23    1
    35    19    20    1
    36    19    48    1
    37    19    49    1
    38    20    21    1
    39    20    50    1
    40    20    51    1
    41    21    22    1
    42    21    24    1
    43    22    23    1
    44    22    52    1
    45    22    53    1
    46    23    54    1
    47    23    55    1
    48    24    25    1
    49    24    56    1
    50    24    57    1
    51    25    26    1
    52    25    58    1
    53    25    59    1
    54    26    27    1
    55    27    28   ar
    56    27    32   ar
    57    28    29   ar
    58    28    60    1
    59    29    30   ar
    60    29    61    1
    61    30    31   ar
    62    30    34    1
    63    31    32   ar
    64    31    62    1
    65    32    33    1
    66    35    63    1
    67    35    64    1
    68    35    65    1
@<TRIPOS>SUBSTRUCTURE
     1 UNL         1 TEMP              0 ****  ****    0 ROOT


##########                                Name:    ZINC001591898574
##########                DOCK_Rotatable_Bonds:                  10
##########                         Heavy_Atoms:                  26
##########                    Molecular_Weight:             383.434
##########                DOCK_Rotatable_Bonds:                  10
##########                       Formal_Charge:         5.96046e-08
##########                     HBond_Acceptors:                  13
##########                        HBond_Donors:                   3
##########                         Heavy_Atoms:                  26
##########                          Grid_Score:          -36.993839
##########                     Grid_vdw_energy:          -36.528275
##########                      Grid_es_energy:           -0.465566
##########           Internal_energy_repulsive:           12.706832

@<TRIPOS>MOLECULE
ZINC001591898574
 47 48 1 0 0
SMALL
USER_CHARGES


@<TRIPOS>ATOM
      1 C1         -2.2664    3.7743   54.0366 C.3     1  ZINC001591898574   -0.1100
      2 C2         -2.2137    3.1789   52.6531 C.ar    1  ZINC001591898574    0.2300
      3 C3         -0.9966    2.8885   52.0627 C.ar    1  ZINC001591898574   -0.2400
      4 C4         -0.9942    2.3371   50.7792 C.ar    1  ZINC001591898574    0.3000
      5 C5          0.2852    2.0076   50.1032 C.2     1  ZINC001591898574    0.2100
      6 N6          0.4430    1.6653   48.8399 N.2     1  ZINC001591898574   -0.2500
      7 N7          1.6997    1.4612   48.6408 N.pl3   1  ZINC001591898574   -0.2200
      8 N8          2.3432    1.6632   49.7372 N.2     1  ZINC001591898574   -0.0400
      9 N9          1.5061    2.0056   50.6570 N.2     1  ZINC001591898574   -0.2500
     10 N10        -2.1565    2.1115   50.1721 N.ar    1  ZINC001591898574   -0.5500
     11 C11        -3.2992    2.4042   50.7732 C.ar    1  ZINC001591898574    0.5800
     12 N12        -4.4907    2.1570   50.1136 N.pl3   1  ZINC001591898574   -0.7000
     13 C13        -5.7283    1.9817   50.8779 C.3     1  ZINC001591898574    0.1400
     14 C14        -5.8698    0.5150   51.2898 C.3     1  ZINC001591898574   -0.1500
     15 C15        -6.3466    0.4368   52.7416 C.3     1  ZINC001591898574    0.1200
     16 N16        -7.7233    0.9295   52.8305 N.am    1  ZINC001591898574   -0.7300
     17 C17        -8.7554    0.0832   52.6432 C.2     1  ZINC001591898574    0.4900
     18 O18        -8.5443   -1.0867   52.4025 O.2     1  ZINC001591898574   -0.5300
     19 C19       -10.1716    0.5904   52.7329 C.3     1  ZINC001591898574    0.1000
     20 N20       -10.6502    0.4611   54.1115 N.am    1  ZINC001591898574   -0.9800
     21 C21       -10.4244    1.5458   55.0701 C.3     1  ZINC001591898574    0.1000
     22 S22       -11.4464   -0.9111   54.5864 S.o2    1  ZINC001591898574    2.6100
     23 C23       -11.8390   -0.6248   56.3341 C.3     1  ZINC001591898574   -0.6600
     24 O24       -12.6321   -0.9170   53.8033 O.2     1  ZINC001591898574   -0.9500
     25 O25       -10.4769   -1.9418   54.4554 O.2     1  ZINC001591898574   -0.9600
     26 N26        -3.3314    2.9232   51.9920 N.ar    1  ZINC001591898574   -0.5600
     27 H27        -2.3028    2.9738   54.7755 H       1  ZINC001591898574    0.0900
     28 H28        -1.3779    4.3832   54.2042 H       1  ZINC001591898574    0.0900
     29 H29        -3.1564    4.3965   54.1308 H       1  ZINC001591898574    0.0900
     30 H30        -0.0699    3.0840   52.5819 H       1  ZINC001591898574    0.1600
     31 H31         2.0984    1.1967   47.7969 H       1  ZINC001591898574    0.4800
     32 H32        -4.5063    2.0998   49.1455 H       1  ZINC001591898574    0.4200
     33 H33        -5.6965    2.6081   51.7693 H       1  ZINC001591898574    0.0700
     34 H34        -6.5798    2.2698   50.2615 H       1  ZINC001591898574    0.0700
     35 H35        -6.5959    0.0240   50.6420 H       1  ZINC001591898574    0.0800
     36 H36        -4.9047    0.0169   51.1972 H       1  ZINC001591898574    0.0800
     37 H37        -6.3084   -0.5981   53.0814 H       1  ZINC001591898574    0.0700
     38 H38        -5.7001    1.0496   53.3698 H       1  ZINC001591898574    0.0700
     39 H39        -7.8922    1.8648   53.0242 H       1  ZINC001591898574    0.4000
     40 H40       -10.2018    1.6383   52.4347 H       1  ZINC001591898574    0.1200
     41 H41       -10.8097    0.0056   52.0705 H       1  ZINC001591898574    0.1300
     42 H42       -11.2637    2.2405   55.0369 H       1  ZINC001591898574    0.0600
     43 H43       -10.3357    1.1308   56.0740 H       1  ZINC001591898574    0.0700
     44 H44        -9.5059    2.0730   54.8124 H       1  ZINC001591898574    0.0700
     45 H45       -12.4665    0.2618   56.4249 H       1  ZINC001591898574    0.1300
     46 H46       -12.3705   -1.4887   56.7332 H       1  ZINC001591898574    0.1200
     47 H47       -10.9159   -0.4756   56.8941 H       1  ZINC001591898574    0.1300
@<TRIPOS>BOND
     1     1     2    1
     2     1    27    1
     3     1    28    1
     4     1    29    1
     5     2    26   ar
     6     2     3   ar
     7     3     4   ar
     8     3    30    1
     9     4     5    1
    10     4    10   ar
    11     5     9    1
    12     5     6    2
    13     6     7    1
    14     7     8    1
    15     7    31    1
    16     8     9    2
    17    10    11   ar
    18    11    12    1
    19    11    26   ar
    20    12    13    1
    21    12    32    1
    22    13    14    1
    23    13    33    1
    24    13    34    1
    25    14    15    1
    26    14    35    1
    27    14    36    1
    28    15    16    1
    29    15    37    1
    30    15    38    1
    31    16    17   am
    32    16    39    1
    33    17    18    2
    34    17    19    1
    35    19    20    1
    36    19    40    1
    37    19    41    1
    38    20    21    1
    39    20    22   am
    40    21    42    1
    41    21    43    1
    42    21    44    1
    43    22    23    1
    44    22    24    2
    45    22    25    2
    46    23    45    1
    47    23    46    1
    48    23    47    1
@<TRIPOS>SUBSTRUCTURE
     1 ZINC001591898574        1 TEMP              0 ****  ****    0 ROOT


##########                                Name:    ZINC000824084043
##########                DOCK_Rotatable_Bonds:                  11
##########                         Heavy_Atoms:                  27
##########                    Molecular_Weight:             382.547
##########                DOCK_Rotatable_Bonds:                  11
##########                       Formal_Charge:        -6.85453e-07
##########                     HBond_Acceptors:                   7
##########                        HBond_Donors:                   3
##########                         Heavy_Atoms:                  27
##########                          Grid_Score:          -36.946697
##########                     Grid_vdw_energy:          -33.526417
##########                      Grid_es_energy:           -3.420279
##########           Internal_energy_repulsive:           16.472319

@<TRIPOS>MOLECULE
ZINC000824084043
 65 66 1 0 0
SMALL
USER_CHARGES


@<TRIPOS>ATOM
      1 C1        -12.3756   -0.2943   60.0716 C.3     1  ZINC000824084043   -0.1400
      2 C2        -11.1977    0.1047   59.1804 C.3     1  ZINC000824084043   -0.1000
      3 C3         -9.9019    0.0474   59.9919 C.3     1  ZINC000824084043   -0.1300
      4 C4        -11.1023   -0.8619   57.9982 C.3     1  ZINC000824084043    0.1700
      5 H5        -12.1046   -1.1038   57.6448 H       1  ZINC000824084043    0.0700
      6 C6        -10.3069   -0.2072   56.8670 C.3     1  ZINC000824084043   -0.1400
      7 C7        -11.2114    0.7606   56.1013 C.3     1  ZINC000824084043    0.1300
      8 N8        -11.4766    0.2261   54.7633 N.am    1  ZINC000824084043   -0.6200
      9 C9        -12.6588   -0.6066   54.5282 C.3     1  ZINC000824084043    0.0800
     10 C10       -10.6331    0.5005   53.7487 C.2     1  ZINC000824084043    0.7000
     11 O11       -10.8523    0.0558   52.6385 O.2     1  ZINC000824084043   -0.5800
     12 N12        -9.5464    1.2680   53.9646 N.am    1  ZINC000824084043   -0.7500
     13 C13        -8.6284    1.5648   52.8622 C.3     1  ZINC000824084043    0.1600
     14 C14        -7.8753    2.8649   53.1590 C.3     1  ZINC000824084043   -0.1600
     15 C15        -6.8620    3.1271   52.0427 C.3     1  ZINC000824084043   -0.0100
     16 N16        -5.9088    2.0132   51.9706 N.4     1  ZINC000824084043   -0.3800
     17 H17        -5.4596    1.8977   52.8667 H       1  ZINC000824084043    0.4200
     18 C18        -4.8936    2.3047   50.9495 C.3     1  ZINC000824084043    0.0000
     19 C19        -3.5033    2.2665   51.5872 C.3     1  ZINC000824084043   -0.1200
     20 C20        -2.4212    1.9973   50.5122 C.3     1  ZINC000824084043   -0.1400
     21 C21        -1.1419    2.5811   51.1615 C.3     1  ZINC000824084043   -0.1200
     22 C22        -1.6317    3.8510   51.8876 C.3     1  ZINC000824084043   -0.1300
     23 C23        -3.1332    3.6510   52.1583 C.3     1  ZINC000824084043   -0.1100
     24 C24        -6.6144    0.7760   51.6156 C.3     1  ZINC000824084043    0.0000
     25 C25        -7.6182    0.4233   52.7155 C.3     1  ZINC000824084043   -0.1600
     26 N26       -10.4254   -2.0893   58.4243 N.am    1  ZINC000824084043   -0.7800
     27 C27       -10.7577   -3.2705   57.8668 C.2     1  ZINC000824084043    0.6600
     28 O28       -10.1916   -4.2949   58.2214 O.co2   1  ZINC000824084043   -0.7200
     29 O29       -11.6256   -3.3178   57.0061 O.co2   1  ZINC000824084043   -0.7300
     30 H30       -12.4436    0.3943   60.9137 H       1  ZINC000824084043    0.0500
     31 H31       -13.2988   -0.2535   59.4934 H       1  ZINC000824084043    0.0500
     32 H32       -12.2237   -1.3079   60.4423 H       1  ZINC000824084043    0.0500
     33 H33       -11.3497    1.1184   58.8095 H       1  ZINC000824084043    0.0500
     34 H34        -9.7500   -0.9663   60.3626 H       1  ZINC000824084043    0.0600
     35 H35        -9.0627    0.3317   59.3569 H       1  ZINC000824084043    0.0700
     36 H36        -9.9699    0.7359   60.8340 H       1  ZINC000824084043    0.0300
     37 H37        -9.4621    0.3394   57.2860 H       1  ZINC000824084043    0.0700
     38 H38        -9.9407   -0.9768   56.1876 H       1  ZINC000824084043    0.0600
     39 H39       -12.1525    0.8800   56.6380 H       1  ZINC000824084043    0.0900
     40 H40       -10.7172    1.7282   56.0146 H       1  ZINC000824084043    0.0900
     41 H41       -13.4986    0.0270   54.2427 H       1  ZINC000824084043    0.0600
     42 H42       -12.4502   -1.3160   53.7274 H       1  ZINC000824084043    0.0600
     43 H43       -12.9073   -1.1503   55.4397 H       1  ZINC000824084043    0.0800
     44 H44        -9.3721    1.6238   54.8501 H       1  ZINC000824084043    0.4000
     45 H45        -9.1935    1.6728   51.9364 H       1  ZINC000824084043    0.1100
     46 H46        -8.5832    3.6921   53.2097 H       1  ZINC000824084043    0.1200
     47 H47        -7.3525    2.7733   54.1110 H       1  ZINC000824084043    0.0900
     48 H48        -7.3858    3.2186   51.0913 H       1  ZINC000824084043    0.1300
     49 H49        -6.3241    4.0521   52.2508 H       1  ZINC000824084043    0.1300
     50 H50        -4.9506    1.5584   50.1571 H       1  ZINC000824084043    0.1300
     51 H51        -5.0740    3.2944   50.5301 H       1  ZINC000824084043    0.1300
     52 H52        -3.4640    1.5082   52.3692 H       1  ZINC000824084043    0.1000
     53 H53        -2.3108    0.9276   50.3347 H       1  ZINC000824084043    0.0700
     54 H54        -2.6579    2.5214   49.5861 H       1  ZINC000824084043    0.0800
     55 H55        -0.7188    1.8732   51.8742 H       1  ZINC000824084043    0.0700
     56 H56        -0.4090    2.8378   50.3966 H       1  ZINC000824084043    0.0800
     57 H57        -1.0956    3.9731   52.8288 H       1  ZINC000824084043    0.0700
     58 H58        -1.4796    4.7251   51.2546 H       1  ZINC000824084043    0.0700
     59 H59        -3.7098    4.4281   51.6566 H       1  ZINC000824084043    0.0700
     60 H60        -3.3258    3.6760   53.2308 H       1  ZINC000824084043    0.0800
     61 H61        -7.1435    0.9176   50.6733 H       1  ZINC000824084043    0.1300
     62 H62        -5.8938   -0.0347   51.5084 H       1  ZINC000824084043    0.1300
     63 H63        -7.0900    0.2812   53.6583 H       1  ZINC000824084043    0.0900
     64 H64        -8.1422   -0.4946   52.4492 H       1  ZINC000824084043    0.1200
     65 H65        -9.7381   -2.0518   59.1078 H       1  ZINC000824084043    0.3600
@<TRIPOS>BOND
     1     1     2    1
     2     1    30    1
     3     1    31    1
     4     1    32    1
     5     2     3    1
     6     2     4    1
     7     2    33    1
     8     3    34    1
     9     3    35    1
    10     3    36    1
    11     4     5    1
    12     4     6    1
    13     4    26    1
    14     6     7    1
    15     6    37    1
    16     6    38    1
    17     7     8    1
    18     7    39    1
    19     7    40    1
    20     8     9    1
    21     8    10   am
    22     9    41    1
    23     9    42    1
    24     9    43    1
    25    10    11    2
    26    10    12   am
    27    12    13    1
    28    12    44    1
    29    13    25    1
    30    13    14    1
    31    13    45    1
    32    14    15    1
    33    14    46    1
    34    14    47    1
    35    15    16    1
    36    15    48    1
    37    15    49    1
    38    16    17    1
    39    16    18    1
    40    16    24    1
    41    18    19    1
    42    18    50    1
    43    18    51    1
    44    19    23    1
    45    19    20    1
    46    19    52    1
    47    20    21    1
    48    20    53    1
    49    20    54    1
    50    21    22    1
    51    21    55    1
    52    21    56    1
    53    22    23    1
    54    22    57    1
    55    22    58    1
    56    23    59    1
    57    23    60    1
    58    24    25    1
    59    24    61    1
    60    24    62    1
    61    25    63    1
    62    25    64    1
    63    26    27   am
    64    26    65    1
    65    27    28   ar
    66    27    29   ar
@<TRIPOS>SUBSTRUCTURE
     1 ZINC000824084043        1 TEMP              0 ****  ****    0 ROOT


##########                                Name:    ZINC000484900616
##########                DOCK_Rotatable_Bonds:                  10
##########                         Heavy_Atoms:                  29
##########                    Molecular_Weight:             415.556
##########                DOCK_Rotatable_Bonds:                  10
##########                       Formal_Charge:        -1.49012e-08
##########                     HBond_Acceptors:                   7
##########                        HBond_Donors:                   1
##########                         Heavy_Atoms:                  29
##########                          Grid_Score:          -36.706097
##########                     Grid_vdw_energy:          -35.961361
##########                      Grid_es_energy:           -0.744735
##########           Internal_energy_repulsive:           11.803996

@<TRIPOS>MOLECULE
ZINC000484900616
 58 60 1 0 0
SMALL
USER_CHARGES


@<TRIPOS>ATOM
      1 C1        -17.4162   -6.6035   45.9978 C.3     1  ZINC000484900616   -0.1500
      2 C2        -16.3632   -5.5421   45.6729 C.3     1  ZINC000484900616    0.0600
      3 O3        -15.1827   -5.7663   46.4881 O.3     1  ZINC000484900616   -0.3400
      4 C4        -15.3440   -5.7157   47.8255 C.2     1  ZINC000484900616    0.5500
      5 O5        -15.1998   -6.7210   48.4935 O.2     1  ZINC000484900616   -0.5000
      6 C6        -15.6945   -4.4439   48.4766 C.2     1  ZINC000484900616    0.0200
      7 C7        -16.3127   -4.3734   49.6778 C.2     1  ZINC000484900616   -0.2400
      8 S8        -16.5412   -2.7290   50.0848 S.3     1  ZINC000484900616    0.2900
      9 C9        -15.7992   -2.2306   48.6297 C.2     1  ZINC000484900616    0.0300
     10 C10       -15.6026   -0.7952   48.2146 C.3     1  ZINC000484900616    0.1500
     11 H11       -14.9461   -0.7386   47.3463 H       1  ZINC000484900616    0.0900
     12 C12       -16.9675   -0.1323   47.9027 C.3     1  ZINC000484900616   -0.1200
     13 C13       -16.6457    1.3685   48.1280 C.3     1  ZINC000484900616   -0.1400
     14 C14       -15.6520    1.3376   49.3083 C.3     1  ZINC000484900616    0.0500
     15 N15       -15.0445   -0.0074   49.3341 N.3     1  ZINC000484900616   -0.5100
     16 C16       -13.5804    0.0745   49.2471 C.3     1  ZINC000484900616    0.0300
     17 C17       -13.0373    0.7095   50.5013 C.2     1  ZINC000484900616    0.5200
     18 O18       -12.9702    1.9172   50.5894 O.2     1  ZINC000484900616   -0.5100
     19 N19       -12.6260   -0.0648   51.5248 N.am    1  ZINC000484900616   -0.7300
     20 C20       -12.0996    0.5525   52.7448 C.3     1  ZINC000484900616    0.1900
     21 H21       -12.5123    1.5557   52.8516 H       1  ZINC000484900616    0.1000
     22 C22       -12.4959   -0.2938   53.9563 C.3     1  ZINC000484900616   -0.1600
     23 C23       -10.5973    0.6339   52.6586 C.ar    1  ZINC000484900616   -0.1000
     24 C24        -9.9664    1.8619   52.7294 C.ar    1  ZINC000484900616   -0.1100
     25 C25        -8.5884    1.9366   52.6504 C.ar    1  ZINC000484900616   -0.1100
     26 C26        -7.8411    0.7833   52.5011 C.ar    1  ZINC000484900616   -0.0800
     27 C27        -6.3388    0.8647   52.4145 C.3     1  ZINC000484900616   -0.0900
     28 C28        -5.9368    1.4432   51.0563 C.3     1  ZINC000484900616   -0.1500
     29 C29        -8.4719   -0.4448   52.4317 C.ar    1  ZINC000484900616   -0.1100
     30 C30        -9.8498   -0.5198   52.5146 C.ar    1  ZINC000484900616   -0.1000
     31 N31       -15.4269   -3.2502   47.9397 N.2     1  ZINC000484900616   -0.4300
     32 H32       -17.0116   -7.5934   45.7868 H       1  ZINC000484900616    0.0700
     33 H33       -17.6850   -6.5379   47.0521 H       1  ZINC000484900616    0.0700
     34 H34       -18.3025   -6.4353   45.3858 H       1  ZINC000484900616    0.0800
     35 H35       -16.0944   -5.6078   44.6186 H       1  ZINC000484900616    0.0700
     36 H36       -16.7678   -4.5522   45.8838 H       1  ZINC000484900616    0.0700
     37 H37       -16.6128   -5.2177   50.2808 H       1  ZINC000484900616    0.1900
     38 H38       -17.2646   -0.3172   46.8703 H       1  ZINC000484900616    0.0900
     39 H39       -17.7356   -0.4752   48.5958 H       1  ZINC000484900616    0.0800
     40 H40       -16.1788    1.7997   47.2424 H       1  ZINC000484900616    0.0700
     41 H41       -17.5466    1.9198   48.3970 H       1  ZINC000484900616    0.0800
     42 H42       -14.8773    2.0899   49.1607 H       1  ZINC000484900616    0.0600
     43 H43       -16.1806    1.5250   50.2430 H       1  ZINC000484900616    0.0900
     44 H44       -13.1662   -0.9279   49.1386 H       1  ZINC000484900616    0.1100
     45 H45       -13.3010    0.6785   48.3837 H       1  ZINC000484900616    0.0700
     46 H46       -12.6784   -1.0308   51.4538 H       1  ZINC000484900616    0.4000
     47 H47       -12.1042    0.1654   54.8640 H       1  ZINC000484900616    0.0700
     48 H48       -13.5825   -0.3526   54.0186 H       1  ZINC000484900616    0.0700
     49 H49       -12.0832   -1.2969   53.8494 H       1  ZINC000484900616    0.0600
     50 H50       -10.5503    2.7630   52.8460 H       1  ZINC000484900616    0.1200
     51 H51        -8.0956    2.8961   52.7049 H       1  ZINC000484900616    0.1200
     52 H52        -5.9635    1.5091   53.2094 H       1  ZINC000484900616    0.0700
     53 H53        -5.9140   -0.1331   52.5245 H       1  ZINC000484900616    0.0700
     54 H54        -6.3121    0.7987   50.2614 H       1  ZINC000484900616    0.0600
     55 H55        -6.3616    2.4409   50.9463 H       1  ZINC000484900616    0.0600
     56 H56        -4.8502    1.5020   50.9937 H       1  ZINC000484900616    0.0600
     57 H57        -7.8880   -1.3460   52.3155 H       1  ZINC000484900616    0.1200
     58 H58       -10.3425   -1.4794   52.4604 H       1  ZINC000484900616    0.1200
@<TRIPOS>BOND
     1     1     2    1
     2     1    32    1
     3     1    33    1
     4     1    34    1
     5     2     3    1
     6     2    35    1
     7     2    36    1
     8     3     4    1
     9     4     5    2
    10     4     6    1
    11     6    31    1
    12     6     7    2
    13     7     8    1
    14     7    37    1
    15     8     9    1
    16     9    10    1
    17     9    31    2
    18    10    11    1
    19    10    15    1
    20    10    12    1
    21    12    13    1
    22    12    38    1
    23    12    39    1
    24    13    14    1
    25    13    40    1
    26    13    41    1
    27    14    15    1
    28    14    42    1
    29    14    43    1
    30    15    16    1
    31    16    17    1
    32    16    44    1
    33    16    45    1
    34    17    18    2
    35    17    19   am
    36    19    20    1
    37    19    46    1
    38    20    21    1
    39    20    22    1
    40    20    23    1
    41    22    47    1
    42    22    48    1
    43    22    49    1
    44    23    30   ar
    45    23    24   ar
    46    24    25   ar
    47    24    50    1
    48    25    26   ar
    49    25    51    1
    50    26    27    1
    51    26    29   ar
    52    27    28    1
    53    27    52    1
    54    27    53    1
    55    28    54    1
    56    28    55    1
    57    28    56    1
    58    29    30   ar
    59    29    57    1
    60    30    58    1
@<TRIPOS>SUBSTRUCTURE
     1 ZINC000484900616        1 TEMP              0 ****  ****    0 ROOT


##########                                Name:    ZINC001289410668
##########                DOCK_Rotatable_Bonds:                  11
##########                         Heavy_Atoms:                  26
##########                    Molecular_Weight:             362.515
##########                DOCK_Rotatable_Bonds:                  11
##########                       Formal_Charge:          -0.0400008
##########                     HBond_Acceptors:                   6
##########                        HBond_Donors:                   1
##########                         Heavy_Atoms:                  26
##########                          Grid_Score:          -36.517235
##########                     Grid_vdw_energy:          -34.491096
##########                      Grid_es_energy:           -2.026140
##########           Internal_energy_repulsive:           13.634764

@<TRIPOS>MOLECULE
ZINC001289410668
 60 61 1 0 0
SMALL
USER_CHARGES


@<TRIPOS>ATOM
      1 C1        -11.0222    0.0622   53.5571 C.3     1  ZINC001289410668   -0.1500
      2 C2         -9.8591   -0.7520   52.9867 C.3     1  ZINC001289410668   -0.1300
      3 C3         -8.6264    0.1442   52.8531 C.3     1  ZINC001289410668   -0.1200
      4 C4         -7.4423   -0.6878   52.3563 C.3     1  ZINC001289410668   -0.1200
      5 C5         -6.2187    0.2153   52.1891 C.3     1  ZINC001289410668   -0.1100
      6 C6         -6.4933    1.2486   51.0947 C.3     1  ZINC001289410668   -0.1400
      7 C7         -5.2152    1.9704   50.7533 C.2     1  ZINC001289410668    0.5100
      8 O8         -4.9980    2.3111   49.6098 O.2     1  ZINC001289410668   -0.5300
      9 N9         -4.3134    2.2373   51.7188 N.am    1  ZINC001289410668   -0.7200
     10 C10        -3.0702    2.9374   51.3867 C.3     1  ZINC001289410668    0.1400
     11 H11        -3.2680    3.7999   50.7500 H       1  ZINC001289410668    0.1100
     12 C12        -2.0532    1.9773   50.7207 C.3     1  ZINC001289410668    0.0800
     13 N13        -0.7338    2.5737   50.9979 N.am    1  ZINC001289410668   -0.6200
     14 C14         0.3845    2.3794   50.2711 C.2     1  ZINC001289410668    0.5100
     15 O15         0.3563    1.6590   49.2958 O.2     1  ZINC001289410668   -0.5100
     16 C16         1.6698    3.0574   50.6703 C.3     1  ZINC001289410668    0.0900
     17 N17         2.7632    2.5657   49.8282 N.pl3   1  ZINC001289410668   -0.4500
     18 C18         2.9131    2.7803   48.4846 C.2     1  ZINC001289410668   -0.0500
     19 C19         4.0474    2.1555   48.1146 C.2     1  ZINC001289410668   -0.0200
     20 N20         4.5755    1.5755   49.2026 N.2     1  ZINC001289410668   -0.4800
     21 C21         3.8144    1.8213   50.2337 C.2     1  ZINC001289410668    0.2300
     22 C22         4.0624    1.3452   51.6418 C.3     1  ZINC001289410668   -0.0100
     23 C23         4.9316    0.0864   51.6090 C.3     1  ZINC001289410668   -0.1400
     24 C24         4.7812    2.4408   52.4314 C.3     1  ZINC001289410668   -0.1400
     25 C25        -0.8400    3.4161   52.1982 C.3     1  ZINC001289410668    0.1100
     26 C26        -2.3083    3.3576   52.6713 C.3     1  ZINC001289410668   -0.1100
     27 H27        -2.4316    2.6093   53.4542 H       1  ZINC001289410668    0.0900
     28 C28        -2.7749    4.7305   53.1592 C.3     1  ZINC001289410668   -0.1400
     29 H29       -11.9005   -0.5762   53.6522 H       1  ZINC001289410668    0.0500
     30 H30       -10.7473    0.4507   54.5376 H       1  ZINC001289410668    0.0500
     31 H31       -11.2473    0.8924   52.8875 H       1  ZINC001289410668    0.0500
     32 H32        -9.6340   -1.5822   53.6562 H       1  ZINC001289410668    0.0600
     33 H33       -10.1340   -1.1404   52.0060 H       1  ZINC001289410668    0.0600
     34 H34        -8.8333    0.9430   52.1408 H       1  ZINC001289410668    0.0600
     35 H35        -8.3846    0.5767   53.8240 H       1  ZINC001289410668    0.0600
     36 H36        -7.2194   -1.4711   53.0808 H       1  ZINC001289410668    0.0600
     37 H37        -7.6934   -1.1408   51.3973 H       1  ZINC001289410668    0.0600
     38 H38        -6.0140    0.7274   53.1293 H       1  ZINC001289410668    0.0700
     39 H39        -5.3562   -0.3896   51.9095 H       1  ZINC001289410668    0.0700
     40 H40        -6.8743    0.7447   50.2065 H       1  ZINC001289410668    0.1000
     41 H41        -7.2323    1.9667   51.4502 H       1  ZINC001289410668    0.1000
     42 H42        -4.4877    1.9659   52.6336 H       1  ZINC001289410668    0.4000
     43 H43        -2.1217    0.9844   51.1653 H       1  ZINC001289410668    0.0800
     44 H44        -2.2279    1.9256   49.6460 H       1  ZINC001289410668    0.0800
     45 H45         1.5677    4.1349   50.5406 H       1  ZINC001289410668    0.1200
     46 H46         1.8880    2.8361   51.7150 H       1  ZINC001289410668    0.1200
     47 H47         2.2492    3.3421   47.8443 H       1  ZINC001289410668    0.1700
     48 H48         4.4595    2.1267   47.1167 H       1  ZINC001289410668    0.1700
     49 H49         3.1104    1.1169   52.1212 H       1  ZINC001289410668    0.0700
     50 H50         5.8835    0.3147   51.1297 H       1  ZINC001289410668    0.0700
     51 H51         5.1109   -0.2579   52.6274 H       1  ZINC001289410668    0.0600
     52 H52         4.4194   -0.6942   51.0465 H       1  ZINC001289410668    0.0500
     53 H53         5.7333    2.6691   51.9521 H       1  ZINC001289410668    0.0700
     54 H54         4.1620    3.3376   52.4549 H       1  ZINC001289410668    0.0600
     55 H55         4.9606    2.0966   53.4500 H       1  ZINC001289410668    0.0600
     56 H56        -0.1830    3.0334   52.9791 H       1  ZINC001289410668    0.0800
     57 H57        -0.5703    4.4438   51.9548 H       1  ZINC001289410668    0.0800
     58 H58        -2.6715    5.4570   52.3532 H       1  ZINC001289410668    0.0600
     59 H59        -3.8199    4.6720   53.4636 H       1  ZINC001289410668    0.0600
     60 H60        -2.1659    5.0407   54.0084 H       1  ZINC001289410668    0.0700
@<TRIPOS>BOND
     1     1     2    1
     2     1    29    1
     3     1    30    1
     4     1    31    1
     5     2     3    1
     6     2    32    1
     7     2    33    1
     8     3     4    1
     9     3    34    1
    10     3    35    1
    11     4     5    1
    12     4    36    1
    13     4    37    1
    14     5     6    1
    15     5    38    1
    16     5    39    1
    17     6     7    1
    18     6    40    1
    19     6    41    1
    20     7     8    2
    21     7     9   am
    22     9    10    1
    23     9    42    1
    24    10    11    1
    25    10    26    1
    26    10    12    1
    27    12    13    1
    28    12    43    1
    29    12    44    1
    30    13    14   am
    31    13    25    1
    32    14    15    2
    33    14    16    1
    34    16    17    1
    35    16    45    1
    36    16    46    1
    37    17    21    1
    38    17    18    1
    39    18    19    2
    40    18    47    1
    41    19    20    1
    42    19    48    1
    43    20    21    2
    44    21    22    1
    45    22    23    1
    46    22    24    1
    47    22    49    1
    48    23    50    1
    49    23    51    1
    50    23    52    1
    51    24    53    1
    52    24    54    1
    53    24    55    1
    54    25    26    1
    55    25    56    1
    56    25    57    1
    57    26    27    1
    58    26    28    1
    59    28    58    1
    60    28    59    1
    61    28    60    1
@<TRIPOS>SUBSTRUCTURE
     1 ZINC001289410668        1 TEMP              0 ****  ****    0 ROOT


##########                                Name:    ZINC000762187039
##########                DOCK_Rotatable_Bonds:                   9
##########                         Heavy_Atoms:                  25
##########                    Molecular_Weight:             354.473
##########                DOCK_Rotatable_Bonds:                   9
##########                       Formal_Charge:        -1.78814e-07
##########                     HBond_Acceptors:                   5
##########                        HBond_Donors:                   1
##########                         Heavy_Atoms:                  25
##########                          Grid_Score:          -36.407860
##########                     Grid_vdw_energy:          -36.025394
##########                      Grid_es_energy:           -0.382465
##########           Internal_energy_repulsive:            9.189004

@<TRIPOS>MOLECULE
ZINC000762187039
 47 49 1 0 0
SMALL
USER_CHARGES


@<TRIPOS>ATOM
      1 C1        -10.4493   -2.2451   57.7442 C.3     1  ZINC000762187039   -0.0800
      2 C2        -11.4492   -1.7596   56.7265 C.2     1  ZINC000762187039    0.0500
      3 N3        -11.1475   -1.2107   55.5984 N.2     1  ZINC000762187039   -0.4700
      4 C4        -12.1473   -0.8432   54.8226 C.2     1  ZINC000762187039    0.0700
      5 C5        -11.9402   -0.1916   53.4797 C.3     1  ZINC000762187039   -0.0300
      6 C6        -10.7179    0.7266   53.5414 C.3     1  ZINC000762187039   -0.1300
      7 C7         -9.4905   -0.0421   53.1246 C.2     1  ZINC000762187039    0.5200
      8 O8         -9.5056   -1.2548   53.1246 O.2     1  ZINC000762187039   -0.5400
      9 N9         -8.3762    0.6181   52.7520 N.am    1  ZINC000762187039   -0.7300
     10 C10        -7.1826   -0.1292   52.3483 C.3     1  ZINC000762187039    0.1200
     11 C11        -6.0154    0.8407   52.1533 C.3     1  ZINC000762187039   -0.1300
     12 C12        -6.1611    1.5495   50.8052 C.3     1  ZINC000762187039    0.0600
     13 O13        -5.4450    2.7857   50.8372 O.3     1  ZINC000762187039   -0.3100
     14 C14        -4.1009    2.7153   51.0240 C.ar    1  ZINC000762187039    0.1300
     15 C15        -3.5578    3.0598   52.2653 C.ar    1  ZINC000762187039   -0.1900
     16 C16        -2.2165    2.9994   52.4828 C.ar    1  ZINC000762187039   -0.0600
     17 C17        -1.3605    2.5849   51.4478 C.ar    1  ZINC000762187039   -0.0800
     18 C18         0.0299    2.5106   51.6381 C.ar    1  ZINC000762187039   -0.0900
     19 C19         0.8292    2.1047   50.6142 C.ar    1  ZINC000762187039   -0.1300
     20 C20         0.2903    1.7603   49.3758 C.ar    1  ZINC000762187039   -0.1000
     21 C21        -1.0511    1.8201   49.1545 C.ar    1  ZINC000762187039   -0.1200
     22 C22        -1.9089    2.2346   50.1883 C.ar    1  ZINC000762187039   -0.0100
     23 C23        -3.2984    2.3034   49.9980 C.ar    1  ZINC000762187039   -0.1500
     24 C24       -13.3599   -1.0963   55.3241 C.2     1  ZINC000762187039   -0.2600
     25 S25       -13.1473   -1.8630   56.8962 S.3     1  ZINC000762187039    0.1200
     26 H26       -10.9771   -2.6687   58.5987 H       1  ZINC000762187039    0.0800
     27 H27        -9.8145   -3.0086   57.2945 H       1  ZINC000762187039    0.0900
     28 H28        -9.8332   -1.4093   58.0757 H       1  ZINC000762187039    0.0900
     29 H29       -11.7794   -0.9601   52.7237 H       1  ZINC000762187039    0.0900
     30 H30       -12.8221    0.3944   53.2204 H       1  ZINC000762187039    0.0900
     31 H31       -10.8636    1.5713   52.8681 H       1  ZINC000762187039    0.0900
     32 H32       -10.5891    1.0920   54.5603 H       1  ZINC000762187039    0.1000
     33 H33        -8.3646    1.5880   52.7509 H       1  ZINC000762187039    0.4000
     34 H34        -6.9280   -0.8529   53.1226 H       1  ZINC000762187039    0.0700
     35 H35        -7.3804   -0.6524   51.4128 H       1  ZINC000762187039    0.0700
     36 H36        -6.0193    1.5796   52.9546 H       1  ZINC000762187039    0.0800
     37 H37        -5.0763    0.2877   52.1734 H       1  ZINC000762187039    0.0800
     38 H38        -5.7569    0.9157   50.0159 H       1  ZINC000762187039    0.0700
     39 H39        -7.2154    1.7453   50.6098 H       1  ZINC000762187039    0.0700
     40 H40        -4.2126    3.3787   53.0628 H       1  ZINC000762187039    0.1300
     41 H41        -1.8108    3.2691   53.4467 H       1  ZINC000762187039    0.1300
     42 H42         0.4620    2.7744   52.5922 H       1  ZINC000762187039    0.1300
     43 H43         1.8975    2.0488   50.7634 H       1  ZINC000762187039    0.1200
     44 H44         0.9471    1.4418   48.5798 H       1  ZINC000762187039    0.1200
     45 H45        -1.4547    1.5502   48.1897 H       1  ZINC000762187039    0.1300
     46 H46        -3.7299    2.0356   49.0449 H       1  ZINC000762187039    0.1300
     47 H47       -14.3034   -0.8736   54.8482 H       1  ZINC000762187039    0.1800
@<TRIPOS>BOND
     1     1     2    1
     2     1    26    1
     3     1    27    1
     4     1    28    1
     5     2    25    1
     6     2     3    2
     7     3     4    1
     8     4     5    1
     9     4    24    2
    10     5     6    1
    11     5    29    1
    12     5    30    1
    13     6     7    1
    14     6    31    1
    15     6    32    1
    16     7     8    2
    17     7     9   am
    18     9    10    1
    19     9    33    1
    20    10    11    1
    21    10    34    1
    22    10    35    1
    23    11    12    1
    24    11    36    1
    25    11    37    1
    26    12    13    1
    27    12    38    1
    28    12    39    1
    29    13    14    1
    30    14    23   ar
    31    14    15   ar
    32    15    16   ar
    33    15    40    1
    34    16    17   ar
    35    16    41    1
    36    17    22   ar
    37    17    18   ar
    38    18    19   ar
    39    18    42    1
    40    19    20   ar
    41    19    43    1
    42    20    21   ar
    43    20    44    1
    44    21    22   ar
    45    21    45    1
    46    22    23   ar
    47    23    46    1
    48    24    25    1
    49    24    47    1
@<TRIPOS>SUBSTRUCTURE
     1 ZINC000762187039        1 TEMP              0 ****  ****    0 ROOT


##########                                Name:    ZINC000004598904
##########                DOCK_Rotatable_Bonds:                  13
##########                         Heavy_Atoms:                  30
##########                    Molecular_Weight:             412.442
##########                DOCK_Rotatable_Bonds:                  13
##########                       Formal_Charge:          -0.0300005
##########                     HBond_Acceptors:                   8
##########                        HBond_Donors:                   2
##########                         Heavy_Atoms:                  30
##########                          Grid_Score:          -36.362644
##########                     Grid_vdw_energy:          -34.751358
##########                      Grid_es_energy:           -1.611287
##########           Internal_energy_repulsive:            9.498189

@<TRIPOS>MOLECULE
ZINC000004598904
 54 55 1 0 0
SMALL
USER_CHARGES


@<TRIPOS>ATOM
      1 C1        -15.2647   -1.0803   55.6745 C.3     1  ZINC000004598904   -0.1500
      2 C2        -14.2356   -1.8406   56.5135 C.3     1  ZINC000004598904    0.0600
      3 O3        -12.9379   -1.7725   55.8659 O.3     1  ZINC000004598904   -0.3500
      4 C4        -12.2090   -0.6581   56.0721 C.2     1  ZINC000004598904    0.5100
      5 O5        -12.4235    0.0366   57.0457 O.2     1  ZINC000004598904   -0.5100
      6 C6        -11.1511   -0.2816   55.1162 C.ar    1  ZINC000004598904   -0.1500
      7 C7        -11.0495   -0.9414   53.8878 C.ar    1  ZINC000004598904   -0.0400
      8 C8        -10.0607   -0.5873   52.9981 C.ar    1  ZINC000004598904   -0.1400
      9 C9         -9.1630    0.4259   53.3199 C.ar    1  ZINC000004598904    0.1800
     10 N10        -8.1631    0.7821   52.4161 N.am    1  ZINC000004598904   -0.6700
     11 C11        -7.1026   -0.0286   52.2304 C.2     1  ZINC000004598904    0.5200
     12 O12        -7.0181   -1.0680   52.8495 O.2     1  ZINC000004598904   -0.5100
     13 C13        -6.0218    0.3565   51.2534 C.3     1  ZINC000004598904   -0.1300
     14 C14        -5.8635    1.8783   51.2417 C.3     1  ZINC000004598904   -0.1300
     15 C15        -4.4559    2.2339   50.8378 C.2     1  ZINC000004598904    0.5200
     16 O16        -4.2555    2.8364   49.8045 O.2     1  ZINC000004598904   -0.5100
     17 N17        -3.4197    1.8826   51.6248 N.am    1  ZINC000004598904   -0.6700
     18 C18        -2.1176    2.2116   51.2510 C.ar    1  ZINC000004598904    0.1800
     19 C19        -1.4903    1.5077   50.2276 C.ar    1  ZINC000004598904   -0.1400
     20 C20        -0.2047    1.8299   49.8560 C.ar    1  ZINC000004598904   -0.0300
     21 C21         0.4706    2.8660   50.5078 C.ar    1  ZINC000004598904   -0.1500
     22 C22         1.8478    3.2144   50.1121 C.2     1  ZINC000004598904    0.5100
     23 O23         2.1028    4.3371   49.7240 O.2     1  ZINC000004598904   -0.5100
     24 O24         2.8235    2.2876   50.1811 O.3     1  ZINC000004598904   -0.3600
     25 C25         3.3137    1.9436   51.5038 C.3     1  ZINC000004598904    0.0600
     26 C26         4.4543    0.9316   51.3779 C.3     1  ZINC000004598904   -0.1500
     27 C27        -0.1628    3.5714   51.5353 C.ar    1  ZINC000004598904   -0.0400
     28 C28        -1.4503    3.2470   51.8984 C.ar    1  ZINC000004598904   -0.1600
     29 C29        -9.2611    1.0848   54.5416 C.ar    1  ZINC000004598904   -0.1600
     30 C30       -10.2509    0.7399   55.4339 C.ar    1  ZINC000004598904   -0.0300
     31 H31       -15.3291   -1.5298   54.6836 H       1  ZINC000004598904    0.0700
     32 H32       -16.2390   -1.1314   56.1607 H       1  ZINC000004598904    0.0800
     33 H33       -14.9592   -0.0382   55.5816 H       1  ZINC000004598904    0.0700
     34 H34       -14.1712   -1.3911   57.5044 H       1  ZINC000004598904    0.0700
     35 H35       -14.5412   -2.8828   56.6064 H       1  ZINC000004598904    0.0700
     36 H36       -11.7457   -1.7282   53.6376 H       1  ZINC000004598904    0.1400
     37 H37        -9.9814   -1.0969   52.0492 H       1  ZINC000004598904    0.1400
     38 H38        -8.2307    1.6135   51.9210 H       1  ZINC000004598904    0.4200
     39 H39        -5.0804   -0.1043   51.5527 H       1  ZINC000004598904    0.1100
     40 H40        -6.2941    0.0119   50.2558 H       1  ZINC000004598904    0.1100
     41 H41        -6.5661    2.3112   50.5296 H       1  ZINC000004598904    0.1100
     42 H42        -6.0663    2.2724   52.2375 H       1  ZINC000004598904    0.1100
     43 H43        -3.5801    1.4007   52.4512 H       1  ZINC000004598904    0.4200
     44 H44        -2.0127    0.7074   49.7245 H       1  ZINC000004598904    0.1400
     45 H45         0.2818    1.2827   49.0621 H       1  ZINC000004598904    0.1400
     46 H46         3.6786    2.8423   52.0011 H       1  ZINC000004598904    0.0700
     47 H47         2.5043    1.5077   52.0892 H       1  ZINC000004598904    0.0700
     48 H48         4.8223    0.6735   52.3708 H       1  ZINC000004598904    0.0800
     49 H49         4.0894    0.0330   50.8805 H       1  ZINC000004598904    0.0700
     50 H50         5.2638    1.3676   50.7924 H       1  ZINC000004598904    0.0700
     51 H51         0.3560    4.3722   52.0411 H       1  ZINC000004598904    0.1400
     52 H52        -1.9406    3.7917   52.6918 H       1  ZINC000004598904    0.1400
     53 H53        -8.5627    1.8707   54.7881 H       1  ZINC000004598904    0.1400
     54 H54       -10.3265    1.2517   56.3819 H       1  ZINC000004598904    0.1400
@<TRIPOS>BOND
     1     1     2    1
     2     1    31    1
     3     1    32    1
     4     1    33    1
     5     2     3    1
     6     2    34    1
     7     2    35    1
     8     3     4    1
     9     4     5    2
    10     4     6    1
    11     6    30   ar
    12     6     7   ar
    13     7     8   ar
    14     7    36    1
    15     8     9   ar
    16     8    37    1
    17     9    10    1
    18     9    29   ar
    19    10    11   am
    20    10    38    1
    21    11    12    2
    22    11    13    1
    23    13    14    1
    24    13    39    1
    25    13    40    1
    26    14    15    1
    27    14    41    1
    28    14    42    1
    29    15    16    2
    30    15    17   am
    31    17    18    1
    32    17    43    1
    33    18    28   ar
    34    18    19   ar
    35    19    20   ar
    36    19    44    1
    37    20    21   ar
    38    20    45    1
    39    21    22    1
    40    21    27   ar
    41    22    23    2
    42    22    24    1
    43    24    25    1
    44    25    26    1
    45    25    46    1
    46    25    47    1
    47    26    48    1
    48    26    49    1
    49    26    50    1
    50    27    28   ar
    51    27    51    1
    52    28    52    1
    53    29    30   ar
    54    29    53    1
    55    30    54    1
@<TRIPOS>SUBSTRUCTURE
     1 ZINC000004598904        1 TEMP              0 ****  ****    0 ROOT


##########                                Name:    ZINC001127302705
##########                DOCK_Rotatable_Bonds:                   9
##########                         Heavy_Atoms:                  28
##########                    Molecular_Weight:             398.892
##########                DOCK_Rotatable_Bonds:                   9
##########                       Formal_Charge:          -0.0200002
##########                     HBond_Acceptors:                   7
##########                        HBond_Donors:                   1
##########                         Heavy_Atoms:                  28
##########                          Grid_Score:          -36.340416
##########                     Grid_vdw_energy:          -34.999470
##########                      Grid_es_energy:           -1.340945
##########           Internal_energy_repulsive:           26.142601

@<TRIPOS>MOLECULE
ZINC001127302705
 51 53 1 0 0
SMALL
USER_CHARGES


@<TRIPOS>ATOM
      1 C1         -6.1675    3.8502   51.0412 C.3     1  ZINC001127302705   -0.1500
      2 C2         -6.5965    2.3954   50.8395 C.3     1  ZINC001127302705   -0.1400
      3 C3         -5.6791    1.4763   51.6486 C.3     1  ZINC001127302705    0.1800
      4 C4         -6.2636    0.0626   51.6697 C.3     1  ZINC001127302705   -0.1600
      5 C5         -4.2916    1.4451   51.0046 C.3     1  ZINC001127302705    0.0700
      6 O6         -3.4377    2.3796   51.6676 O.3     1  ZINC001127302705   -0.2800
      7 C7         -2.1352    2.4011   51.2875 C.ar    1  ZINC001127302705    0.3400
      8 N8         -1.7923    1.9361   50.0983 N.ar    1  ZINC001127302705   -0.5300
      9 C9         -0.5376    1.9387   49.6889 C.ar    1  ZINC001127302705    0.1400
     10 C10         0.4692    2.4307   50.4949 C.ar    1  ZINC001127302705   -0.2000
     11 C11         0.1515    2.9284   51.7513 C.ar    1  ZINC001127302705   -0.0300
     12 C12        -1.1746    2.9173   52.1499 C.ar    1  ZINC001127302705   -0.1100
     13 Cl13       -1.6296    3.5271   53.7103 Cl      1  ZINC001127302705   -0.0400
     14 N14        -5.5697    1.9800   53.0201 N.am    1  ZINC001127302705   -0.7100
     15 C15        -6.6740    2.1025   53.7831 C.2     1  ZINC001127302705    0.6200
     16 O16        -7.7606    1.7937   53.3338 O.2     1  ZINC001127302705   -0.5200
     17 C17        -6.5639    2.6119   55.1651 C.2     1  ZINC001127302705   -0.0200
     18 N18        -7.5302    2.6675   56.0599 N.2     1  ZINC001127302705   -0.2500
     19 N19        -7.0865    3.1663   57.1576 N.pl3   1  ZINC001127302705   -0.2800
     20 C20        -7.8867    3.3749   58.3668 C.3     1  ZINC001127302705    0.1600
     21 C21        -8.3962    2.0479   58.8671 C.ar    1  ZINC001127302705   -0.1200
     22 C22        -7.7786    1.4296   59.9381 C.ar    1  ZINC001127302705   -0.1000
     23 C23        -8.2459    0.2123   60.3970 C.ar    1  ZINC001127302705   -0.1200
     24 C24        -9.3312   -0.3866   59.7851 C.ar    1  ZINC001127302705   -0.1100
     25 C25        -9.9494    0.2321   58.7145 C.ar    1  ZINC001127302705   -0.1200
     26 C26        -9.4846    1.4515   58.2584 C.ar    1  ZINC001127302705   -0.0800
     27 C27        -5.7764    3.4704   57.0364 C.2     1  ZINC001127302705   -0.0200
     28 C28        -5.3995    3.1274   55.7823 C.2     1  ZINC001127302705   -0.1800
     29 H29        -5.1385    3.9756   50.7042 H       1  ZINC001127302705    0.0500
     30 H30        -6.8210    4.5049   50.4648 H       1  ZINC001127302705    0.0600
     31 H31        -6.2373    4.1063   52.0984 H       1  ZINC001127302705    0.0500
     32 H32        -7.6254    2.2700   51.1766 H       1  ZINC001127302705    0.0900
     33 H33        -6.5266    2.1392   49.7823 H       1  ZINC001127302705    0.0800
     34 H34        -6.3451   -0.3122   50.6493 H       1  ZINC001127302705    0.0700
     35 H35        -5.6101   -0.5922   52.2462 H       1  ZINC001127302705    0.0500
     36 H36        -7.2521    0.0848   52.1286 H       1  ZINC001127302705    0.0800
     37 H37        -3.8722    0.4430   51.0937 H       1  ZINC001127302705    0.0800
     38 H38        -4.3740    1.7123   49.9511 H       1  ZINC001127302705    0.0700
     39 H39        -0.2954    1.5504   48.7106 H       1  ZINC001127302705    0.1700
     40 H40         1.4932    2.4283   50.1519 H       1  ZINC001127302705    0.1500
     41 H41         0.9203    3.3191   52.4015 H       1  ZINC001127302705    0.1500
     42 H42        -4.7026    2.2252   53.3789 H       1  ZINC001127302705    0.4100
     43 H43        -7.2696    3.8404   59.1352 H       1  ZINC001127302705    0.1000
     44 H44        -8.7311    4.0246   58.1361 H       1  ZINC001127302705    0.1100
     45 H45        -6.9308    1.8975   60.4163 H       1  ZINC001127302705    0.1200
     46 H46        -7.7629   -0.2710   61.2335 H       1  ZINC001127302705    0.1300
     47 H47        -9.6959   -1.3381   60.1431 H       1  ZINC001127302705    0.1200
     48 H48       -10.7969   -0.2360   58.2363 H       1  ZINC001127302705    0.1300
     49 H49        -9.9676    1.9348   57.4221 H       1  ZINC001127302705    0.1300
     50 H50        -5.1457    3.9022   57.7993 H       1  ZINC001127302705    0.1800
     51 H51        -4.4185    3.2320   55.3429 H       1  ZINC001127302705    0.1600
@<TRIPOS>BOND
     1     1     2    1
     2     1    29    1
     3     1    30    1
     4     1    31    1
     5     2     3    1
     6     2    32    1
     7     2    33    1
     8     3     4    1
     9     3     5    1
    10     3    14    1
    11     4    34    1
    12     4    35    1
    13     4    36    1
    14     5     6    1
    15     5    37    1
    16     5    38    1
    17     6     7    1
    18     7    12   ar
    19     7     8   ar
    20     8     9   ar
    21     9    10   ar
    22     9    39    1
    23    10    11   ar
    24    10    40    1
    25    11    12   ar
    26    11    41    1
    27    12    13    1
    28    14    15   am
    29    14    42    1
    30    15    16    2
    31    15    17    1
    32    17    28    1
    33    17    18    2
    34    18    19    1
    35    19    20    1
    36    19    27    1
    37    20    21    1
    38    20    43    1
    39    20    44    1
    40    21    26   ar
    41    21    22   ar
    42    22    23   ar
    43    22    45    1
    44    23    24   ar
    45    23    46    1
    46    24    25   ar
    47    24    47    1
    48    25    26   ar
    49    25    48    1
    50    26    49    1
    51    27    28    2
    52    27    50    1
    53    28    51    1
@<TRIPOS>SUBSTRUCTURE
     1 ZINC001127302705        1 TEMP              0 ****  ****    0 ROOT


##########                                Name:    ZINC000487792031
##########                DOCK_Rotatable_Bonds:                  12
##########                         Heavy_Atoms:                  29
##########                    Molecular_Weight:             414.569
##########                DOCK_Rotatable_Bonds:                  12
##########                       Formal_Charge:          -0.0100001
##########                     HBond_Acceptors:                   6
##########                        HBond_Donors:                   1
##########                         Heavy_Atoms:                  29
##########                          Grid_Score:          -36.321640
##########                     Grid_vdw_energy:          -36.680782
##########                      Grid_es_energy:            0.359143
##########           Internal_energy_repulsive:           20.005165

@<TRIPOS>MOLECULE
ZINC000487792031
 59 60 1 0 0
SMALL
USER_CHARGES


@<TRIPOS>ATOM
      1 C1        -16.5151    1.6100   45.9587 C.2     1  ZINC000487792031   -0.1900
      2 C2        -15.9781    1.2927   47.1107 C.2     1  ZINC000487792031   -0.1500
      3 C3        -14.5826    1.7538   47.4441 C.3     1  ZINC000487792031   -0.0900
      4 C4        -14.3989    1.7666   48.9629 C.3     1  ZINC000487792031   -0.0900
      5 C5        -13.6851    0.4862   49.4011 C.3     1  ZINC000487792031   -0.0700
      6 H6        -12.8375    0.2990   48.7419 H       1  ZINC000487792031    0.1100
      7 C7        -13.1948    0.6441   50.8174 C.2     1  ZINC000487792031    0.5200
      8 O8        -12.9454    1.7481   51.2532 O.2     1  ZINC000487792031   -0.5300
      9 N9        -13.0331   -0.4415   51.5995 N.am    1  ZINC000487792031   -0.7200
     10 C10       -12.5548   -0.2882   52.9757 C.3     1  ZINC000487792031    0.1500
     11 C11       -11.0972    0.0946   52.9612 C.ar    1  ZINC000487792031   -0.0500
     12 C12       -10.6976    1.3136   53.4761 C.ar    1  ZINC000487792031   -0.1200
     13 C13        -9.3607    1.6647   53.4628 C.ar    1  ZINC000487792031   -0.0200
     14 C14        -8.4232    0.7965   52.9351 C.ar    1  ZINC000487792031   -0.6700
     15 S15        -6.7192    1.2443   52.9177 S.o2    1  ZINC000487792031    2.6900
     16 O16        -6.5326    2.1551   53.9924 O.2     1  ZINC000487792031   -0.9500
     17 O17        -5.9873    0.0330   52.7896 O.2     1  ZINC000487792031   -0.9500
     18 N18        -6.4519    2.1016   51.5264 N.am    1  ZINC000487792031   -1.0000
     19 C19        -7.1838    3.3467   51.2811 C.3     1  ZINC000487792031    0.1200
     20 C20        -6.2075    4.5246   51.3012 C.3     1  ZINC000487792031   -0.1800
     21 C21        -5.4833    1.6149   50.5408 C.3     1  ZINC000487792031    0.1100
     22 C22        -4.0638    1.8722   51.0506 C.3     1  ZINC000487792031   -0.1800
     23 C23        -8.8227   -0.4231   52.4214 C.ar    1  ZINC000487792031   -0.0200
     24 C24       -10.1593   -0.7758   52.4382 C.ar    1  ZINC000487792031   -0.1200
     25 C25       -14.6443   -0.6738   49.3281 C.ar    1  ZINC000487792031   -0.0800
     26 C26       -15.7704   -0.6911   50.1297 C.ar    1  ZINC000487792031   -0.1100
     27 C27       -16.6502   -1.7552   50.0626 C.ar    1  ZINC000487792031   -0.1100
     28 C28       -16.4042   -2.8018   49.1937 C.ar    1  ZINC000487792031   -0.1200
     29 C29       -15.2786   -2.7840   48.3914 C.ar    1  ZINC000487792031   -0.1200
     30 C30       -14.4010   -1.7178   48.4554 C.ar    1  ZINC000487792031   -0.1100
     31 H31       -17.5152    1.2795   45.7198 H       1  ZINC000487792031    0.1000
     32 H32       -15.9594    2.2058   45.2497 H       1  ZINC000487792031    0.1000
     33 H33       -16.5354    0.7005   47.8215 H       1  ZINC000487792031    0.1100
     34 H34       -13.8584    1.0734   46.9962 H       1  ZINC000487792031    0.0700
     35 H35       -14.4283    2.7587   47.0509 H       1  ZINC000487792031    0.0700
     36 H36       -13.8013    2.6320   49.2493 H       1  ZINC000487792031    0.0800
     37 H37       -15.3743    1.8225   49.4463 H       1  ZINC000487792031    0.0700
     38 H38       -13.2336   -1.3243   51.2513 H       1  ZINC000487792031    0.4000
     39 H39       -13.1301    0.4911   53.4756 H       1  ZINC000487792031    0.0800
     40 H40       -12.6778   -1.2301   53.5102 H       1  ZINC000487792031    0.0800
     41 H41       -11.4300    1.9918   53.8885 H       1  ZINC000487792031    0.1400
     42 H42        -9.0485    2.6173   53.8645 H       1  ZINC000487792031    0.1400
     43 H43        -7.6717    3.2957   50.3077 H       1  ZINC000487792031    0.0800
     44 H44        -7.9360    3.4850   52.0577 H       1  ZINC000487792031    0.0800
     45 H45        -5.7197    4.5756   52.2745 H       1  ZINC000487792031    0.0600
     46 H46        -5.4553    4.3863   50.5245 H       1  ZINC000487792031    0.0600
     47 H47        -6.7521    5.4509   51.1187 H       1  ZINC000487792031    0.0700
     48 H48        -5.6262    0.5450   50.3886 H       1  ZINC000487792031    0.0900
     49 H49        -5.6310    2.1391   49.5967 H       1  ZINC000487792031    0.0900
     50 H50        -3.9209    2.9421   51.2028 H       1  ZINC000487792031    0.0600
     51 H51        -3.9162    1.3480   51.9947 H       1  ZINC000487792031    0.0600
     52 H52        -3.3433    1.5101   50.3173 H       1  ZINC000487792031    0.0700
     53 H53        -8.0903   -1.1015   52.0094 H       1  ZINC000487792031    0.1400
     54 H54       -10.4713   -1.7287   52.0368 H       1  ZINC000487792031    0.1400
     55 H55       -15.9625    0.1266   50.8085 H       1  ZINC000487792031    0.1200
     56 H56       -17.5296   -1.7691   50.6894 H       1  ZINC000487792031    0.1200
     57 H57       -17.0913   -3.6334   49.1418 H       1  ZINC000487792031    0.1200
     58 H58       -15.0862   -3.6018   47.7128 H       1  ZINC000487792031    0.1200
     59 H59       -13.5215   -1.7040   47.8285 H       1  ZINC000487792031    0.1200
@<TRIPOS>BOND
     1     1     2    2
     2     1    31    1
     3     1    32    1
     4     2     3    1
     5     2    33    1
     6     3     4    1
     7     3    34    1
     8     3    35    1
     9     4     5    1
    10     4    36    1
    11     4    37    1
    12     5     6    1
    13     5     7    1
    14     5    25    1
    15     7     8    2
    16     7     9   am
    17     9    10    1
    18     9    38    1
    19    10    11    1
    20    10    39    1
    21    10    40    1
    22    11    24   ar
    23    11    12   ar
    24    12    13   ar
    25    12    41    1
    26    13    14   ar
    27    13    42    1
    28    14    15    1
    29    14    23   ar
    30    15    16    2
    31    15    17    2
    32    15    18   am
    33    18    19    1
    34    18    21    1
    35    19    20    1
    36    19    43    1
    37    19    44    1
    38    20    45    1
    39    20    46    1
    40    20    47    1
    41    21    22    1
    42    21    48    1
    43    21    49    1
    44    22    50    1
    45    22    51    1
    46    22    52    1
    47    23    24   ar
    48    23    53    1
    49    24    54    1
    50    25    30   ar
    51    25    26   ar
    52    26    27   ar
    53    26    55    1
    54    27    28   ar
    55    27    56    1
    56    28    29   ar
    57    28    57    1
    58    29    30   ar
    59    29    58    1
    60    30    59    1
@<TRIPOS>SUBSTRUCTURE
     1 ZINC000487792031        1 TEMP              0 ****  ****    0 ROOT


##########                                Name:    ZINC000546142192
##########                DOCK_Rotatable_Bonds:                  12
##########                         Heavy_Atoms:                  31
##########                    Molecular_Weight:             420.511
##########                DOCK_Rotatable_Bonds:                  12
##########                       Formal_Charge:          -0.0599997
##########                     HBond_Acceptors:                   7
##########                        HBond_Donors:                   2
##########                         Heavy_Atoms:                  31
##########                          Grid_Score:          -36.272976
##########                     Grid_vdw_energy:          -35.884422
##########                      Grid_es_energy:           -0.388555
##########           Internal_energy_repulsive:           15.214867

@<TRIPOS>MOLECULE
ZINC000546142192
 59 61 1 0 0
SMALL
USER_CHARGES


@<TRIPOS>ATOM
      1 C1          1.1037    2.6663   50.3550 C.3     1  ZINC000546142192    0.0300
      2 O2         -0.2582    3.1660   50.4188 O.3     1  ZINC000546142192   -0.3600
      3 C3         -1.2363    2.3161   50.0684 C.2     1  ZINC000546142192    0.4600
      4 O4         -1.1843    1.7395   49.0078 O.2     1  ZINC000546142192   -0.5100
      5 C5         -2.3990    2.0810   50.9979 C.3     1  ZINC000546142192   -0.0800
      6 H6         -2.4327    1.0284   51.2785 H       1  ZINC000546142192    0.1100
      7 C7         -2.2295    2.9386   52.2536 C.3     1  ZINC000546142192   -0.1500
      8 C8         -3.7015    2.4625   50.2916 C.3     1  ZINC000546142192   -0.0600
      9 C9         -4.8720    2.1203   51.1772 C.ar    1  ZINC000546142192   -0.1000
     10 C10        -5.7697    3.1054   51.5455 C.ar    1  ZINC000546142192   -0.0900
     11 C11        -6.8436    2.7950   52.3567 C.ar    1  ZINC000546142192   -0.1200
     12 C12        -7.0212    1.4918   52.8022 C.ar    1  ZINC000546142192    0.1600
     13 N13        -8.1086    1.1738   53.6239 N.am    1  ZINC000546142192   -0.6900
     14 C14        -8.9742    0.2097   53.2528 C.2     1  ZINC000546142192    0.7100
     15 O15        -8.8104   -0.3838   52.2043 O.2     1  ZINC000546142192   -0.5700
     16 N16       -10.0214   -0.0967   54.0440 N.am    1  ZINC000546142192   -0.7400
     17 C17       -10.9632   -1.1435   53.6399 C.3     1  ZINC000546142192    0.2300
     18 C18       -12.2731   -0.9454   54.3583 C.2     1  ZINC000546142192    0.1800
     19 N19       -12.5037   -1.2283   55.6111 N.2     1  ZINC000546142192   -0.4700
     20 C20       -13.7756   -0.9220   55.9070 C.2     1  ZINC000546142192   -0.0300
     21 C21       -14.3551   -0.4306   54.7951 C.2     1  ZINC000546142192   -0.0400
     22 N22       -13.4009   -0.4402   53.8138 N.pl3   1  ZINC000546142192   -0.4500
     23 C23       -13.5733    0.0062   52.4291 C.3     1  ZINC000546142192    0.1100
     24 C24       -12.9387    1.3875   52.2558 C.3     1  ZINC000546142192   -0.0900
     25 C25       -13.3397    1.9606   50.9209 C.ar    1  ZINC000546142192   -0.0900
     26 C26       -13.6599    3.3010   50.8122 C.ar    1  ZINC000546142192   -0.1100
     27 C27       -14.0276    3.8266   49.5877 C.ar    1  ZINC000546142192   -0.1200
     28 C28       -14.0748    3.0120   48.4719 C.ar    1  ZINC000546142192   -0.1200
     29 C29       -13.7537    1.6719   48.5804 C.ar    1  ZINC000546142192   -0.1200
     30 C30       -13.3818    1.1471   49.8041 C.ar    1  ZINC000546142192   -0.1100
     31 C31        -6.1180    0.5047   52.4305 C.ar    1  ZINC000546142192   -0.1500
     32 C32        -5.0491    0.8206   51.6149 C.ar    1  ZINC000546142192   -0.0900
     33 H33         1.3316    2.3625   49.3333 H       1  ZINC000546142192    0.0600
     34 H34         1.7937    3.4518   50.6631 H       1  ZINC000546142192    0.1000
     35 H35         1.2078    1.8095   51.0206 H       1  ZINC000546142192    0.0600
     36 H36        -2.1959    3.9912   51.9729 H       1  ZINC000546142192    0.0600
     37 H37        -3.0706    2.7685   52.9257 H       1  ZINC000546142192    0.0800
     38 H38        -1.3016    2.6668   52.7566 H       1  ZINC000546142192    0.0700
     39 H39        -3.7029    3.5328   50.0852 H       1  ZINC000546142192    0.0800
     40 H40        -3.7816    1.9115   49.3545 H       1  ZINC000546142192    0.0800
     41 H41        -5.6307    4.1188   51.1989 H       1  ZINC000546142192    0.1300
     42 H42        -7.5441    3.5649   52.6443 H       1  ZINC000546142192    0.1400
     43 H43        -8.2393    1.6473   54.4603 H       1  ZINC000546142192    0.4100
     44 H44       -10.1513    0.3758   54.8811 H       1  ZINC000546142192    0.4000
     45 H45       -11.1273   -1.0889   52.5636 H       1  ZINC000546142192    0.0800
     46 H46       -10.5526   -2.1202   53.8958 H       1  ZINC000546142192    0.1000
     47 H47       -14.2516   -1.0475   56.8683 H       1  ZINC000546142192    0.1700
     48 H48       -15.3754   -0.0903   54.6976 H       1  ZINC000546142192    0.1800
     49 H49       -13.0906   -0.7025   51.7561 H       1  ZINC000546142192    0.1000
     50 H50       -14.6364    0.0628   52.1953 H       1  ZINC000546142192    0.0900
     51 H51       -13.2817    2.0476   53.0525 H       1  ZINC000546142192    0.0800
     52 H52       -11.8533    1.2970   52.3011 H       1  ZINC000546142192    0.0800
     53 H53       -13.6230    3.9373   51.6840 H       1  ZINC000546142192    0.1200
     54 H54       -14.2784    4.8737   49.5030 H       1  ZINC000546142192    0.1200
     55 H55       -14.3628    3.4226   47.5154 H       1  ZINC000546142192    0.1200
     56 H56       -13.7908    1.0354   47.7087 H       1  ZINC000546142192    0.1200
     57 H57       -13.1309    0.1001   49.8889 H       1  ZINC000546142192    0.1200
     58 H58        -6.2535   -0.5097   52.7754 H       1  ZINC000546142192    0.1300
     59 H59        -4.3464    0.0532   51.3251 H       1  ZINC000546142192    0.1300
@<TRIPOS>BOND
     1     1     2    1
     2     1    33    1
     3     1    34    1
     4     1    35    1
     5     2     3    1
     6     3     4    2
     7     3     5    1
     8     5     6    1
     9     5     7    1
    10     5     8    1
    11     7    36    1
    12     7    37    1
    13     7    38    1
    14     8     9    1
    15     8    39    1
    16     8    40    1
    17     9    32   ar
    18     9    10   ar
    19    10    11   ar
    20    10    41    1
    21    11    12   ar
    22    11    42    1
    23    12    13    1
    24    12    31   ar
    25    13    14   am
    26    13    43    1
    27    14    15    2
    28    14    16   am
    29    16    17    1
    30    16    44    1
    31    17    18    1
    32    17    45    1
    33    17    46    1
    34    18    22    1
    35    18    19    2
    36    19    20    1
    37    20    21    2
    38    20    47    1
    39    21    22    1
    40    21    48    1
    41    22    23    1
    42    23    24    1
    43    23    49    1
    44    23    50    1
    45    24    25    1
    46    24    51    1
    47    24    52    1
    48    25    30   ar
    49    25    26   ar
    50    26    27   ar
    51    26    53    1
    52    27    28   ar
    53    27    54    1
    54    28    29   ar
    55    28    55    1
    56    29    30   ar
    57    29    56    1
    58    30    57    1
    59    31    32   ar
    60    31    58    1
    61    32    59    1
@<TRIPOS>SUBSTRUCTURE
     1 ZINC000546142192        1 TEMP              0 ****  ****    0 ROOT


##########                                Name:    ZINC000062291520
##########                DOCK_Rotatable_Bonds:                  10
##########                         Heavy_Atoms:                  29
##########                    Molecular_Weight:             398.502
##########                DOCK_Rotatable_Bonds:                  10
##########                       Formal_Charge:          -0.0100006
##########                     HBond_Acceptors:                   6
##########                        HBond_Donors:                   1
##########                         Heavy_Atoms:                  29
##########                          Grid_Score:          -36.183155
##########                     Grid_vdw_energy:          -36.108704
##########                      Grid_es_energy:           -0.074453
##########           Internal_energy_repulsive:           15.267847

@<TRIPOS>MOLECULE
ZINC000062291520
 59 61 1 0 0
SMALL
USER_CHARGES


@<TRIPOS>ATOM
      1 C1          0.5792   -0.9289   62.3540 C.3     1  ZINC000062291520    0.0300
      2 O2          0.2739   -0.0215   61.2931 O.3     1  ZINC000062291520   -0.3100
      3 C3          1.3113    0.6800   60.7629 C.ar    1  ZINC000062291520    0.1000
      4 C4          2.5944    0.4979   61.2522 C.ar    1  ZINC000062291520   -0.1700
      5 C5          3.6473    1.2162   60.7157 C.ar    1  ZINC000062291520   -0.1200
      6 C6          3.4238    2.1123   59.6874 C.ar    1  ZINC000062291520   -0.1200
      7 C7          2.1463    2.2941   59.1902 C.ar    1  ZINC000062291520   -0.1700
      8 C8          1.0871    1.5778   59.7231 C.ar    1  ZINC000062291520    0.1000
      9 O9         -0.1698    1.7554   59.2351 O.3     1  ZINC000062291520   -0.3100
     10 C10        -0.3103    2.6134   58.1011 C.3     1  ZINC000062291520    0.0700
     11 C11        -1.7357    2.5080   57.5552 C.3     1  ZINC000062291520   -0.1400
     12 C12        -1.9323    3.5283   56.4637 C.2     1  ZINC000062291520    0.5200
     13 O13        -2.4916    4.5765   56.7071 O.2     1  ZINC000062291520   -0.5400
     14 N14        -1.4867    3.2757   55.2171 N.am    1  ZINC000062291520   -0.7200
     15 C15        -1.6763    4.2683   54.1564 C.3     1  ZINC000062291520    0.1600
     16 C16        -1.6647    3.5796   52.8160 C.ar    1  ZINC000062291520   -0.1100
     17 C17        -0.4651    3.1982   52.2453 C.ar    1  ZINC000062291520   -0.1000
     18 C18        -0.4546    2.5659   51.0158 C.ar    1  ZINC000062291520   -0.1200
     19 C19        -1.6436    2.3154   50.3573 C.ar    1  ZINC000062291520   -0.0900
     20 C20        -2.8436    2.6974   50.9280 C.ar    1  ZINC000062291520   -0.0800
     21 C21        -4.1401    2.4245   50.2098 C.3     1  ZINC000062291520    0.0900
     22 N22        -5.2189    2.2577   51.1929 N.3     1  ZINC000062291520   -0.5300
     23 C23        -6.3693    3.1114   50.8623 C.3     1  ZINC000062291520    0.0100
     24 C24        -7.4431    2.9516   51.9419 C.3     1  ZINC000062291520    0.0600
     25 O25        -7.8050    1.5721   52.0468 O.3     1  ZINC000062291520   -0.3800
     26 C26        -6.7084    0.7121   52.3684 C.3     1  ZINC000062291520    0.0900
     27 H27        -6.2968    0.9940   53.3375 H       1  ZINC000062291520    0.0700
     28 C28        -7.1948   -0.7375   52.4222 C.3     1  ZINC000062291520   -0.1500
     29 C29        -5.6271    0.8491   51.2932 C.3     1  ZINC000062291520    0.0200
     30 C30        -2.8546    3.3242   52.1598 C.ar    1  ZINC000062291520   -0.0900
     31 H31         1.2879   -1.6773   61.9992 H       1  ZINC000062291520    0.0500
     32 H32         1.0175   -0.3796   63.1872 H       1  ZINC000062291520    0.0600
     33 H33        -0.3349   -1.4221   62.6847 H       1  ZINC000062291520    0.1000
     34 H34         2.7718   -0.2015   62.0557 H       1  ZINC000062291520    0.1400
     35 H35         4.6466    1.0765   61.1009 H       1  ZINC000062291520    0.1300
     36 H36         4.2486    2.6713   59.2711 H       1  ZINC000062291520    0.1300
     37 H37         1.9743    2.9944   58.3862 H       1  ZINC000062291520    0.1400
     38 H38         0.3978    2.3133   57.3286 H       1  ZINC000062291520    0.0700
     39 H39        -0.1099    3.6430   58.3974 H       1  ZINC000062291520    0.0700
     40 H40        -2.4474    2.6945   58.3595 H       1  ZINC000062291520    0.1100
     41 H41        -1.8972    1.5084   57.1516 H       1  ZINC000062291520    0.1100
     42 H42        -1.0404    2.4369   55.0221 H       1  ZINC000062291520    0.4000
     43 H43        -2.6322    4.7728   54.2974 H       1  ZINC000062291520    0.0800
     44 H44        -0.8698    5.0006   54.1955 H       1  ZINC000062291520    0.0800
     45 H45         0.4640    3.3936   52.7600 H       1  ZINC000062291520    0.1200
     46 H46         0.4828    2.2676   50.5701 H       1  ZINC000062291520    0.1300
     47 H47        -1.6353    1.8215   49.3969 H       1  ZINC000062291520    0.1200
     48 H48        -4.3741    3.2615   49.5520 H       1  ZINC000062291520    0.0500
     49 H49        -4.0432    1.5138   49.6187 H       1  ZINC000062291520    0.0900
     50 H50        -6.0493    4.1524   50.8184 H       1  ZINC000062291520    0.0900
     51 H51        -6.7769    2.8147   49.8960 H       1  ZINC000062291520    0.0400
     52 H52        -7.0523    3.2993   52.8983 H       1  ZINC000062291520    0.0600
     53 H53        -8.3209    3.5386   51.6717 H       1  ZINC000062291520    0.1000
     54 H54        -7.6049   -1.0194   51.4524 H       1  ZINC000062291520    0.0600
     55 H55        -6.3587   -1.3924   52.6673 H       1  ZINC000062291520    0.0700
     56 H56        -7.9673   -0.8335   53.1852 H       1  ZINC000062291520    0.0700
     57 H57        -6.0234    0.5157   50.3341 H       1  ZINC000062291520    0.0400
     58 H58        -4.7655    0.2388   51.5637 H       1  ZINC000062291520    0.0900
     59 H59        -3.7922    3.6183   52.6077 H       1  ZINC000062291520    0.1200
@<TRIPOS>BOND
     1     1     2    1
     2     1    31    1
     3     1    32    1
     4     1    33    1
     5     2     3    1
     6     3     8   ar
     7     3     4   ar
     8     4     5   ar
     9     4    34    1
    10     5     6   ar
    11     5    35    1
    12     6     7   ar
    13     6    36    1
    14     7     8   ar
    15     7    37    1
    16     8     9    1
    17     9    10    1
    18    10    11    1
    19    10    38    1
    20    10    39    1
    21    11    12    1
    22    11    40    1
    23    11    41    1
    24    12    13    2
    25    12    14   am
    26    14    15    1
    27    14    42    1
    28    15    16    1
    29    15    43    1
    30    15    44    1
    31    16    30   ar
    32    16    17   ar
    33    17    18   ar
    34    17    45    1
    35    18    19   ar
    36    18    46    1
    37    19    20   ar
    38    19    47    1
    39    20    21    1
    40    20    30   ar
    41    21    22    1
    42    21    48    1
    43    21    49    1
    44    22    29    1
    45    22    23    1
    46    23    24    1
    47    23    50    1
    48    23    51    1
    49    24    25    1
    50    24    52    1
    51    24    53    1
    52    25    26    1
    53    26    27    1
    54    26    28    1
    55    26    29    1
    56    28    54    1
    57    28    55    1
    58    28    56    1
    59    29    57    1
    60    29    58    1
    61    30    59    1
@<TRIPOS>SUBSTRUCTURE
     1 ZINC000062291520        1 TEMP              0 ****  ****    0 ROOT


##########                                Name:    ZINC000508782983
##########                DOCK_Rotatable_Bonds:                   9
##########                         Heavy_Atoms:                  27
##########                    Molecular_Weight:             373.458
##########                DOCK_Rotatable_Bonds:                   9
##########                       Formal_Charge:          -0.0200006
##########                     HBond_Acceptors:                   9
##########                        HBond_Donors:                   2
##########                         Heavy_Atoms:                  27
##########                          Grid_Score:          -36.162369
##########                     Grid_vdw_energy:          -34.783508
##########                      Grid_es_energy:           -1.378861
##########           Internal_energy_repulsive:           14.458162

@<TRIPOS>MOLECULE
ZINC000508782983
 54 56 1 0 0
SMALL
USER_CHARGES


@<TRIPOS>ATOM
      1 C1        -14.6634    1.2352   47.5992 C.3     1  ZINC000508782983   -0.1500
      2 C2        -14.5689    0.4849   48.9293 C.3     1  ZINC000508782983   -0.1100
      3 C3        -13.5116   -0.6156   48.8199 C.3     1  ZINC000508782983   -0.1500
      4 C4        -14.1752    1.4618   50.0391 C.3     1  ZINC000508782983    0.1000
      5 N5        -14.3382    0.8121   51.3420 N.pl3   1  ZINC000508782983   -0.4400
      6 C6        -15.2990   -0.1029   51.6788 C.2     1  ZINC000508782983   -0.0400
      7 C7        -15.0833   -0.4389   52.9650 C.2     1  ZINC000508782983   -0.0300
      8 N8        -14.0198    0.2522   53.4015 N.2     1  ZINC000508782983   -0.4700
      9 C9        -13.5654    0.9998   52.4333 C.2     1  ZINC000508782983    0.1700
     10 C10       -12.3800    1.9263   52.5214 C.3     1  ZINC000508782983    0.2100
     11 N11       -11.1718    1.2151   52.0963 N.am    1  ZINC000508782983   -0.6900
     12 C12       -10.4033    0.5873   53.0083 C.2     1  ZINC000508782983    0.5100
     13 O13       -10.7114    0.6124   54.1817 O.2     1  ZINC000508782983   -0.5100
     14 C14        -9.1717   -0.1397   52.5744 C.2     1  ZINC000508782983    0.5100
     15 O15        -9.2425   -1.3009   52.2294 O.2     1  ZINC000508782983   -0.5200
     16 N16        -7.9824    0.4944   52.5664 N.am    1  ZINC000508782983   -0.5800
     17 C17        -6.7593   -0.2005   52.1373 C.3     1  ZINC000508782983    0.0800
     18 C18        -6.0558    0.6593   51.0817 C.3     1  ZINC000508782983    0.0400
     19 N19        -5.8469    2.0116   51.6161 N.3     1  ZINC000508782983   -0.5400
     20 C20        -5.0243    2.8169   50.7037 C.3     1  ZINC000508782983    0.1400
     21 C21        -3.5668    2.6095   51.0260 C.2     1  ZINC000508782983    0.2100
     22 N22        -2.7449    1.8373   50.3693 N.2     1  ZINC000508782983   -0.4900
     23 C23        -1.5312    1.8989   50.9368 C.2     1  ZINC000508782983   -0.0300
     24 C24        -1.6037    2.7412   51.9850 C.2     1  ZINC000508782983   -0.0500
     25 N25        -2.8935    3.1964   52.0389 N.pl3   1  ZINC000508782983   -0.5600
     26 C26        -7.1261    2.6768   51.8975 C.3     1  ZINC000508782983    0.0400
     27 C27        -7.8745    1.9016   52.9807 C.3     1  ZINC000508782983    0.1100
     28 H28       -14.9438    0.5392   46.8086 H       1  ZINC000508782983    0.0700
     29 H29       -15.4166    2.0193   47.6771 H       1  ZINC000508782983    0.0600
     30 H30       -13.6971    1.6816   47.3645 H       1  ZINC000508782983    0.0600
     31 H31       -15.5351    0.0384   49.1641 H       1  ZINC000508782983    0.0800
     32 H32       -12.5626   -0.1783   48.5098 H       1  ZINC000508782983    0.0600
     33 H33       -13.3892   -1.0996   49.7889 H       1  ZINC000508782983    0.0600
     34 H34       -13.8298   -1.3533   48.0832 H       1  ZINC000508782983    0.0600
     35 H35       -13.1347    1.7592   49.9090 H       1  ZINC000508782983    0.1000
     36 H36       -14.8140    2.3436   49.9903 H       1  ZINC000508782983    0.0900
     37 H37       -16.0801   -0.4823   51.0366 H       1  ZINC000508782983    0.1800
     38 H38       -15.6646   -1.1416   53.5434 H       1  ZINC000508782983    0.1700
     39 H39       -12.5424    2.7867   51.8723 H       1  ZINC000508782983    0.0900
     40 H40       -12.2591    2.2650   53.5503 H       1  ZINC000508782983    0.1100
     41 H41       -10.9248    1.1961   51.1584 H       1  ZINC000508782983    0.4200
     42 H42        -6.0993   -0.3423   52.9931 H       1  ZINC000508782983    0.0800
     43 H43        -7.0193   -1.1679   51.7076 H       1  ZINC000508782983    0.1400
     44 H44        -5.0927    0.2138   50.8328 H       1  ZINC000508782983    0.0900
     45 H45        -6.6743    0.7137   50.1858 H       1  ZINC000508782983    0.0400
     46 H46        -5.2161    2.5106   49.6754 H       1  ZINC000508782983    0.0900
     47 H47        -5.2760    3.8709   50.8218 H       1  ZINC000508782983    0.0700
     48 H48        -0.6502    1.3663   50.6102 H       1  ZINC000508782983    0.1700
     49 H49        -0.7980    3.0093   52.6524 H       1  ZINC000508782983    0.1800
     50 H50        -3.2572    3.8198   52.6869 H       1  ZINC000508782983    0.4200
     51 H51        -6.9392    3.6945   52.2402 H       1  ZINC000508782983    0.1100
     52 H52        -7.7297    2.7031   50.9903 H       1  ZINC000508782983    0.0400
     53 H53        -8.8707    2.3240   53.1112 H       1  ZINC000508782983    0.1000
     54 H54        -7.3234    1.9594   53.9194 H       1  ZINC000508782983    0.0800
@<TRIPOS>BOND
     1     1     2    1
     2     1    28    1
     3     1    29    1
     4     1    30    1
     5     2     3    1
     6     2     4    1
     7     2    31    1
     8     3    32    1
     9     3    33    1
    10     3    34    1
    11     4     5    1
    12     4    35    1
    13     4    36    1
    14     5     9    1
    15     5     6    1
    16     6     7    2
    17     6    37    1
    18     7     8    1
    19     7    38    1
    20     8     9    2
    21     9    10    1
    22    10    11    1
    23    10    39    1
    24    10    40    1
    25    11    12   am
    26    11    41    1
    27    12    13    2
    28    12    14    1
    29    14    15    2
    30    14    16   am
    31    16    27    1
    32    16    17    1
    33    17    18    1
    34    17    42    1
    35    17    43    1
    36    18    19    1
    37    18    44    1
    38    18    45    1
    39    19    20    1
    40    19    26    1
    41    20    21    1
    42    20    46    1
    43    20    47    1
    44    21    25    1
    45    21    22    2
    46    22    23    1
    47    23    24    2
    48    23    48    1
    49    24    25    1
    50    24    49    1
    51    25    50    1
    52    26    27    1
    53    26    51    1
    54    26    52    1
    55    27    53    1
    56    27    54    1
@<TRIPOS>SUBSTRUCTURE
     1 ZINC000508782983        1 TEMP              0 ****  ****    0 ROOT


##########                                Name:    ZINC001596273020
##########                DOCK_Rotatable_Bonds:                  11
##########                         Heavy_Atoms:                  25
##########                    Molecular_Weight:             355.478
##########                DOCK_Rotatable_Bonds:                  11
##########                       Formal_Charge:          -0.0499996
##########                     HBond_Acceptors:                   7
##########                        HBond_Donors:                   2
##########                         Heavy_Atoms:                  25
##########                          Grid_Score:          -36.041428
##########                     Grid_vdw_energy:          -23.895559
##########                      Grid_es_energy:          -12.145866
##########           Internal_energy_repulsive:           23.101585

@<TRIPOS>MOLECULE
ZINC001596273020
 58 59 1 0 0
SMALL
USER_CHARGES


@<TRIPOS>ATOM
      1 C1         -8.7079    3.5514   62.5867 C.3     1  ZINC001596273020   -0.1900
      2 C2         -8.5266    2.3377   63.5006 C.3     1  ZINC001596273020   -0.0200
      3 N3         -7.1897    1.7648   63.2943 N.4     1  ZINC001596273020   -0.3900
      4 H4         -6.6740    2.3397   62.6450 H       1  ZINC001596273020    0.4300
      5 C5         -6.4757    1.7137   64.5771 C.3     1  ZINC001596273020   -0.0100
      6 C6         -7.2808    0.8802   65.5760 C.3     1  ZINC001596273020   -0.1900
      7 C7         -7.3178    0.4062   62.7506 C.3     1  ZINC001596273020   -0.0100
      8 C8         -7.6523    0.4829   61.2596 C.3     1  ZINC001596273020    0.0300
      9 O9         -9.0430    0.2155   61.0691 O.3     1  ZINC001596273020   -0.3900
     10 C10        -9.4937    0.4097   59.7270 C.3     1  ZINC001596273020    0.0500
     11 C11       -10.2629   -0.8289   59.2631 C.3     1  ZINC001596273020    0.1400
     12 N12       -11.6869   -0.6601   59.5629 N.am    1  ZINC001596273020   -0.7500
     13 C13       -12.5029   -0.0857   58.6569 C.2     1  ZINC001596273020    0.7200
     14 O14       -12.0568    0.2938   57.5914 O.2     1  ZINC001596273020   -0.6000
     15 N15       -13.8132    0.0681   58.9320 N.am    1  ZINC001596273020   -0.6300
     16 C16       -14.8600    0.6645   58.0658 C.3     1  ZINC001596273020    0.1100
     17 C17       -16.0828   -0.2756   58.2710 C.3     1  ZINC001596273020   -0.0800
     18 H18       -17.0057    0.2994   58.1949 H       1  ZINC001596273020    0.1200
     19 C19       -16.0412   -1.3233   57.1765 C.3     1  ZINC001596273020   -0.1000
     20 C20       -16.6565   -2.6488   57.6027 C.3     1  ZINC001596273020   -0.1200
     21 C21       -15.8882   -3.1571   58.8298 C.3     1  ZINC001596273020   -0.1200
     22 C22       -16.2017   -2.2194   59.9913 C.3     1  ZINC001596273020   -0.0800
     23 C23       -15.9150   -0.7872   59.6847 C.3     1  ZINC001596273020   -0.1400
     24 C24       -16.8869    0.0114   60.5145 C.2     1  ZINC001596273020    0.5000
     25 O25       -18.0263    0.1874   60.1178 O.co2   1  ZINC001596273020   -0.6900
     26 O26       -16.5339    0.4818   61.5826 O.co2   1  ZINC001596273020   -0.6900
     27 C27       -14.5350   -0.3264   60.1663 C.3     1  ZINC001596273020    0.1600
     28 H28        -8.0258    4.3435   62.8951 H       1  ZINC001596273020    0.0800
     29 H29        -8.4920    3.2663   61.5571 H       1  ZINC001596273020    0.0800
     30 H30        -9.7353    3.9088   62.6571 H       1  ZINC001596273020    0.1000
     31 H31        -8.6330    2.6468   64.5404 H       1  ZINC001596273020    0.1300
     32 H32        -9.2830    1.5891   63.2648 H       1  ZINC001596273020    0.1300
     33 H33        -5.4963    1.2585   64.4299 H       1  ZINC001596273020    0.1300
     34 H34        -6.3517    2.7250   64.9644 H       1  ZINC001596273020    0.1300
     35 H35        -8.2146    1.3926   65.8075 H       1  ZINC001596273020    0.0800
     36 H36        -7.4995   -0.0954   65.1421 H       1  ZINC001596273020    0.0800
     37 H37        -6.7016    0.7497   66.4902 H       1  ZINC001596273020    0.1000
     38 H38        -6.3778   -0.1290   62.8851 H       1  ZINC001596273020    0.1400
     39 H39        -8.1146   -0.1214   63.2750 H       1  ZINC001596273020    0.1400
     40 H40        -7.4196    1.4800   60.8858 H       1  ZINC001596273020    0.1000
     41 H41        -7.0626   -0.2555   60.7164 H       1  ZINC001596273020    0.0700
     42 H42       -10.1482    1.2803   59.6859 H       1  ZINC001596273020    0.0700
     43 H43        -8.6350    0.5694   59.0750 H       1  ZINC001596273020    0.0700
     44 H44       -10.1305   -0.9576   58.1889 H       1  ZINC001596273020    0.0900
     45 H45        -9.8837   -1.7082   59.7838 H       1  ZINC001596273020    0.0700
     46 H46       -12.0426   -0.9619   60.4134 H       1  ZINC001596273020    0.3900
     47 H47       -15.0961    1.6775   58.3915 H       1  ZINC001596273020    0.0700
     48 H48       -14.5433    0.6598   57.0229 H       1  ZINC001596273020    0.0600
     49 H49       -16.5833   -0.9469   56.3090 H       1  ZINC001596273020    0.0500
     50 H50       -15.0027   -1.4933   56.8924 H       1  ZINC001596273020    0.0400
     51 H51       -17.7056   -2.5020   57.8598 H       1  ZINC001596273020    0.0700
     52 H52       -16.5733   -3.3713   56.7908 H       1  ZINC001596273020    0.0500
     53 H53       -16.2102   -4.1693   59.0745 H       1  ZINC001596273020    0.0600
     54 H54       -14.8175   -3.1478   58.6257 H       1  ZINC001596273020    0.0500
     55 H55       -17.2566   -2.3196   60.2470 H       1  ZINC001596273020    0.0600
     56 H56       -15.6055   -2.5188   60.8533 H       1  ZINC001596273020    0.0600
     57 H57       -14.0165   -1.1423   60.6698 H       1  ZINC001596273020    0.0700
     58 H58       -14.6318    0.5314   60.8318 H       1  ZINC001596273020    0.0700
@<TRIPOS>BOND
     1     1     2    1
     2     1    28    1
     3     1    29    1
     4     1    30    1
     5     2     3    1
     6     2    31    1
     7     2    32    1
     8     3     4    1
     9     3     5    1
    10     3     7    1
    11     5     6    1
    12     5    33    1
    13     5    34    1
    14     6    35    1
    15     6    36    1
    16     6    37    1
    17     7     8    1
    18     7    38    1
    19     7    39    1
    20     8     9    1
    21     8    40    1
    22     8    41    1
    23     9    10    1
    24    10    11    1
    25    10    42    1
    26    10    43    1
    27    11    12    1
    28    11    44    1
    29    11    45    1
    30    12    13   am
    31    12    46    1
    32    13    14    2
    33    13    15   am
    34    15    27    1
    35    15    16    1
    36    16    17    1
    37    16    47    1
    38    16    48    1
    39    17    18    1
    40    17    23    1
    41    17    19    1
    42    19    20    1
    43    19    49    1
    44    19    50    1
    45    20    21    1
    46    20    51    1
    47    20    52    1
    48    21    22    1
    49    21    53    1
    50    21    54    1
    51    22    23    1
    52    22    55    1
    53    22    56    1
    54    23    24    1
    55    23    27    1
    56    24    25   ar
    57    24    26   ar
    58    27    57    1
    59    27    58    1
@<TRIPOS>SUBSTRUCTURE
     1 ZINC001596273020        1 TEMP              0 ****  ****    0 ROOT


##########                                Name:    ZINC001090961577
##########                DOCK_Rotatable_Bonds:                   9
##########                         Heavy_Atoms:                  24
##########                    Molecular_Weight:             352.458
##########                DOCK_Rotatable_Bonds:                   9
##########                       Formal_Charge:                0.02
##########                     HBond_Acceptors:                   8
##########                        HBond_Donors:                   1
##########                         Heavy_Atoms:                  24
##########                          Grid_Score:          -35.966206
##########                     Grid_vdw_energy:          -34.874638
##########                      Grid_es_energy:           -1.091568
##########           Internal_energy_repulsive:            6.960932

@<TRIPOS>MOLECULE
ZINC001090961577
 48 49 1 0 0
SMALL
USER_CHARGES


@<TRIPOS>ATOM
      1 C1        -11.1116   -0.0905   56.2110 C.3     1  ZINC001090961577   -0.1400
      2 C2        -11.1221   -1.2966   55.2696 C.3     1  ZINC001090961577   -0.0900
      3 S3        -11.3200   -0.7267   53.5589 S.3     1  ZINC001090961577   -0.2700
      4 C4         -9.6756   -1.0015   52.8443 C.3     1  ZINC001090961577   -0.0700
      5 C5         -8.8563    0.2872   52.9392 C.3     1  ZINC001090961577   -0.1200
      6 C6         -7.5424    0.1009   52.2252 C.2     1  ZINC001090961577    0.5400
      7 O7         -7.0969   -1.0144   52.0561 O.2     1  ZINC001090961577   -0.5300
      8 N8         -6.8623    1.1737   51.7745 N.am    1  ZINC001090961577   -0.6200
      9 C9         -7.2847    2.5754   51.9110 C.3     1  ZINC001090961577    0.1100
     10 C10        -6.1842    3.4497   51.2739 C.3     1  ZINC001090961577   -0.1100
     11 H11        -6.4400    3.7027   50.2450 H       1  ZINC001090961577    0.0900
     12 C12        -5.9539    4.7170   52.0997 C.3     1  ZINC001090961577   -0.1400
     13 C13        -4.9378    2.5267   51.3185 C.3     1  ZINC001090961577    0.1500
     14 H14        -4.4585    2.5644   52.2968 H       1  ZINC001090961577    0.1200
     15 N15        -3.9886    2.8745   50.2582 N.pl3   1  ZINC001090961577   -0.6700
     16 C16        -2.6425    2.6287   50.4299 C.ar    1  ZINC001090961577    0.5900
     17 N17        -2.0367    3.0920   51.5155 N.ar    1  ZINC001090961577   -0.5700
     18 C18        -0.7503    2.8784   51.7170 C.ar    1  ZINC001090961577    0.2700
     19 C19        -0.0248    2.1509   50.7636 C.ar    1  ZINC001090961577   -0.3000
     20 C20         1.4142    1.8879   50.9473 C.2     1  ZINC001090961577    0.5300
     21 O21         1.7842    0.8225   51.3996 O.2     1  ZINC001090961577   -0.5100
     22 O22         2.3191    2.8288   50.6136 O.3     1  ZINC001090961577   -0.3600
     23 C23         1.9539    4.2121   50.8618 C.3     1  ZINC001090961577    0.0400
     24 C24        -0.7031    1.6797   49.6313 C.ar    1  ZINC001090961577    0.2600
     25 N25        -1.9924    1.9315   49.5070 N.ar    1  ZINC001090961577   -0.5700
     26 C26        -5.5685    1.1365   51.0687 C.3     1  ZINC001090961577    0.0900
     27 H27       -10.9927   -0.4330   57.2390 H       1  ZINC001090961577    0.0700
     28 H28       -10.2831    0.5676   55.9491 H       1  ZINC001090961577    0.0700
     29 H29       -12.0515    0.4531   56.1156 H       1  ZINC001090961577    0.0700
     30 H30       -10.1821   -1.8402   55.3650 H       1  ZINC001090961577    0.0800
     31 H31       -11.9506   -1.9547   55.5315 H       1  ZINC001090961577    0.0800
     32 H32        -9.1689   -1.7954   53.3931 H       1  ZINC001090961577    0.0900
     33 H33        -9.7776   -1.2909   51.7983 H       1  ZINC001090961577    0.0900
     34 H34        -9.4092    1.1042   52.4755 H       1  ZINC001090961577    0.1000
     35 H35        -8.6702    0.5231   53.9869 H       1  ZINC001090961577    0.1000
     36 H36        -8.2293    2.7303   51.3898 H       1  ZINC001090961577    0.0800
     37 H37        -7.3950    2.8282   52.9656 H       1  ZINC001090961577    0.0800
     38 H38        -5.6704    4.4422   53.1156 H       1  ZINC001090961577    0.0600
     39 H39        -5.1563    5.3059   51.6466 H       1  ZINC001090961577    0.0600
     40 H40        -6.8709    5.3057   52.1249 H       1  ZINC001090961577    0.0700
     41 H41        -4.3070    3.2775   49.4353 H       1  ZINC001090961577    0.4200
     42 H42        -0.2637    3.2589   52.6029 H       1  ZINC001090961577    0.1800
     43 H43         2.7689    4.8648   50.5487 H       1  ZINC001090961577    0.1100
     44 H44         1.0545    4.4573   50.2971 H       1  ZINC001090961577    0.0700
     45 H45         1.7643    4.3524   51.9259 H       1  ZINC001090961577    0.0700
     46 H46        -0.1794    1.1153   48.8739 H       1  ZINC001090961577    0.1800
     47 H47        -4.9319    0.3520   51.4778 H       1  ZINC001090961577    0.0900
     48 H48        -5.7286    0.9787   50.0021 H       1  ZINC001090961577    0.0800
@<TRIPOS>BOND
     1     1     2    1
     2     1    27    1
     3     1    28    1
     4     1    29    1
     5     2     3    1
     6     2    30    1
     7     2    31    1
     8     3     4    1
     9     4     5    1
    10     4    32    1
    11     4    33    1
    12     5     6    1
    13     5    34    1
    14     5    35    1
    15     6     7    2
    16     6     8   am
    17     8    26    1
    18     8     9    1
    19     9    10    1
    20     9    36    1
    21     9    37    1
    22    10    11    1
    23    10    12    1
    24    10    13    1
    25    12    38    1
    26    12    39    1
    27    12    40    1
    28    13    14    1
    29    13    15    1
    30    13    26    1
    31    15    16    1
    32    15    41    1
    33    16    25   ar
    34    16    17   ar
    35    17    18   ar
    36    18    19   ar
    37    18    42    1
    38    19    20    1
    39    19    24   ar
    40    20    21    2
    41    20    22    1
    42    22    23    1
    43    23    43    1
    44    23    44    1
    45    23    45    1
    46    24    25   ar
    47    24    46    1
    48    26    47    1
    49    26    48    1
@<TRIPOS>SUBSTRUCTURE
     1 ZINC001090961577        1 TEMP              0 ****  ****    0 ROOT


##########                                Name:    ZINC000428748914
##########                DOCK_Rotatable_Bonds:                  11
##########                         Heavy_Atoms:                  30
##########                    Molecular_Weight:             413.492
##########                DOCK_Rotatable_Bonds:                  11
##########                       Formal_Charge:           0.0199993
##########                     HBond_Acceptors:                   7
##########                        HBond_Donors:                   3
##########                         Heavy_Atoms:                  30
##########                          Grid_Score:          -35.875114
##########                     Grid_vdw_energy:          -32.343639
##########                      Grid_es_energy:           -3.531474
##########           Internal_energy_repulsive:           22.768171

@<TRIPOS>MOLECULE
ZINC000428748914
 58 61 1 0 0
SMALL
USER_CHARGES


@<TRIPOS>ATOM
      1 O1         -7.3952    4.1046   54.5667 O.2     1  ZINC000428748914   -0.5900
      2 C2         -6.4421    3.4166   54.8778 C.2     1  ZINC000428748914    0.7000
      3 N3         -5.9771    3.4415   56.1425 N.am    1  ZINC000428748914   -0.7400
      4 C4         -6.6162    4.3021   57.1411 C.3     1  ZINC000428748914    0.1900
      5 C5         -7.3004    3.4475   58.1767 C.ar    1  ZINC000428748914   -0.2000
      6 C6         -7.3342    3.8477   59.5052 C.ar    1  ZINC000428748914   -0.0200
      7 C7         -7.9731    3.0331   60.4240 C.ar    1  ZINC000428748914   -0.1900
      8 C8         -8.5551    1.8499   59.9883 C.ar    1  ZINC000428748914    0.3300
      9 O9         -9.1847    1.0429   60.8789 O.3     1  ZINC000428748914   -0.3000
     10 C10        -9.0867    1.3993   62.2593 C.3     1  ZINC000428748914    0.0800
     11 C11       -10.0572    0.5432   63.1104 C.3     1  ZINC000428748914   -0.1400
     12 C12        -9.4158    0.5984   64.5192 C.3     1  ZINC000428748914   -0.1200
     13 C13        -7.8986    0.5380   64.2468 C.3     1  ZINC000428748914   -0.1200
     14 C14        -7.6894    1.0472   62.8099 C.3     1  ZINC000428748914   -0.1200
     15 N15        -8.5020    1.5023   58.7130 N.ar    1  ZINC000428748914   -0.5400
     16 C16        -7.9054    2.2606   57.8132 C.ar    1  ZINC000428748914    0.1600
     17 N17        -5.8542    2.6249   53.9591 N.am    1  ZINC000428748914   -0.7400
     18 C18        -6.3597    2.5977   52.5843 C.3     1  ZINC000428748914    0.1800
     19 C19        -5.1941    2.7730   51.6088 C.3     1  ZINC000428748914   -0.1300
     20 C20        -4.8270    4.2197   51.2724 C.3     1  ZINC000428748914    0.1100
     21 O21        -5.9708    4.8895   50.7381 O.3     1  ZINC000428748914   -0.5700
     22 C22        -5.0353    1.7279   50.5027 C.3     1  ZINC000428748914   -0.1400
     23 C23        -4.0557    1.7531   51.6778 C.3     1  ZINC000428748914   -0.1000
     24 H24        -4.1372    0.9572   52.4181 H       1  ZINC000428748914    0.1200
     25 C25        -2.6586    2.2498   51.4084 C.ar    1  ZINC000428748914   -0.0700
     26 C26        -2.0058    3.0210   52.3519 C.ar    1  ZINC000428748914   -0.0900
     27 C27        -0.7246    3.4770   52.1059 C.ar    1  ZINC000428748914   -0.1500
     28 C28        -0.0947    3.1607   50.9142 C.ar    1  ZINC000428748914    0.1000
     29 F29         1.1580    3.6055   50.6728 F       1  ZINC000428748914   -0.1400
     30 C30        -0.7493    2.3878   49.9701 C.ar    1  ZINC000428748914   -0.1500
     31 C31        -2.0287    1.9290   50.2204 C.ar    1  ZINC000428748914   -0.0800
     32 H32        -5.2193    2.8896   56.3916 H       1  ZINC000428748914    0.4000
     33 H33        -5.8605    4.9223   57.6234 H       1  ZINC000428748914    0.0800
     34 H34        -7.3524    4.9405   56.6527 H       1  ZINC000428748914    0.0800
     35 H35        -6.8723    4.7735   59.8152 H       1  ZINC000428748914    0.1400
     36 H36        -8.0180    3.3136   61.4660 H       1  ZINC000428748914    0.1400
     37 H37        -9.2934    2.4611   62.3938 H       1  ZINC000428748914    0.1000
     38 H38       -11.0535    0.9851   63.1219 H       1  ZINC000428748914    0.0700
     39 H39       -10.0924   -0.4821   62.7420 H       1  ZINC000428748914    0.0800
     40 H40        -9.6766    1.5303   65.0208 H       1  ZINC000428748914    0.0700
     41 H41        -9.7307   -0.2580   65.1156 H       1  ZINC000428748914    0.0700
     42 H42        -7.3671    1.1781   64.9509 H       1  ZINC000428748914    0.0700
     43 H43        -7.5442   -0.4890   64.3343 H       1  ZINC000428748914    0.0700
     44 H44        -7.2333    0.2673   62.2001 H       1  ZINC000428748914    0.0800
     45 H45        -7.0563    1.9345   62.8168 H       1  ZINC000428748914    0.0700
     46 H46        -7.8821    1.9447   56.7807 H       1  ZINC000428748914    0.1600
     47 H47        -5.0964    2.0729   54.2082 H       1  ZINC000428748914    0.3900
     48 H48        -6.8503    1.6427   52.3964 H       1  ZINC000428748914    0.0700
     49 H49        -7.0756    3.4077   52.4444 H       1  ZINC000428748914    0.0900
     50 H50        -4.4964    4.7304   52.1768 H       1  ZINC000428748914    0.0500
     51 H51        -4.0237    4.2288   50.5358 H       1  ZINC000428748914    0.0600
     52 H52        -6.1710    4.6556   49.8215 H       1  ZINC000428748914    0.3800
     53 H53        -5.7613    0.9154   50.4700 H       1  ZINC000428748914    0.1100
     54 H54        -4.6694    2.0709   49.5350 H       1  ZINC000428748914    0.1100
     55 H55        -2.4974    3.2676   53.2814 H       1  ZINC000428748914    0.1400
     56 H56        -0.2151    4.0800   52.8428 H       1  ZINC000428748914    0.1400
     57 H57        -0.2591    2.1407   49.0401 H       1  ZINC000428748914    0.1400
     58 H58        -2.5394    1.3258   49.4843 H       1  ZINC000428748914    0.1300
@<TRIPOS>BOND
     1     1     2    2
     2     2     3   am
     3     2    17   am
     4     3     4    1
     5     3    32    1
     6     4     5    1
     7     4    33    1
     8     4    34    1
     9     5    16   ar
    10     5     6   ar
    11     6     7   ar
    12     6    35    1
    13     7     8   ar
    14     7    36    1
    15     8     9    1
    16     8    15   ar
    17     9    10    1
    18    10    14    1
    19    10    11    1
    20    10    37    1
    21    11    12    1
    22    11    38    1
    23    11    39    1
    24    12    13    1
    25    12    40    1
    26    12    41    1
    27    13    14    1
    28    13    42    1
    29    13    43    1
    30    14    44    1
    31    14    45    1
    32    15    16   ar
    33    16    46    1
    34    17    18    1
    35    17    47    1
    36    18    19    1
    37    18    48    1
    38    18    49    1
    39    19    23    1
    40    19    20    1
    41    19    22    1
    42    20    21    1
    43    20    50    1
    44    20    51    1
    45    21    52    1
    46    22    23    1
    47    22    53    1
    48    22    54    1
    49    23    24    1
    50    23    25    1
    51    25    31   ar
    52    25    26   ar
    53    26    27   ar
    54    26    55    1
    55    27    28   ar
    56    27    56    1
    57    28    29    1
    58    28    30   ar
    59    30    31   ar
    60    30    57    1
    61    31    58    1
@<TRIPOS>SUBSTRUCTURE
     1 ZINC000428748914        1 TEMP              0 ****  ****    0 ROOT


##########                                Name:    ZINC000770814339
##########                DOCK_Rotatable_Bonds:                  13
##########                         Heavy_Atoms:                  28
##########                    Molecular_Weight:             409.423
##########                DOCK_Rotatable_Bonds:                  13
##########                       Formal_Charge:          -0.0100008
##########                     HBond_Acceptors:                  12
##########                        HBond_Donors:                   4
##########                         Heavy_Atoms:                  28
##########                          Grid_Score:          -35.810947
##########                     Grid_vdw_energy:          -34.473309
##########                      Grid_es_energy:           -1.337639
##########           Internal_energy_repulsive:            7.582856

@<TRIPOS>MOLECULE
ZINC000770814339
 47 48 1 0 0
SMALL
USER_CHARGES


@<TRIPOS>ATOM
      1 C1         -7.4455    1.4546   63.9522 C.3     1  ZINC000770814339   -0.1500
      2 C2         -7.6273    0.0959   63.2726 C.3     1  ZINC000770814339    0.0600
      3 O3         -7.7371    0.2836   61.8370 O.3     1  ZINC000770814339   -0.3500
      4 C4         -8.9453    0.6170   61.3566 C.2     1  ZINC000770814339    0.4700
      5 O5         -9.9367    0.4012   62.0126 O.2     1  ZINC000770814339   -0.4800
      6 C6         -9.0652    1.2602   59.9991 C.3     1  ZINC000770814339    0.0700
      7 O7         -9.4221    0.2699   59.0326 O.3     1  ZINC000770814339   -0.1800
      8 N8         -9.4598    0.7515   57.7015 N.2     1  ZINC000770814339   -0.2800
      9 C9        -10.1109    0.0893   56.7874 C.2     1  ZINC000770814339    0.1800
     10 C10       -10.1488    0.5923   55.3938 C.2     1  ZINC000770814339    0.5900
     11 O11       -10.4482    1.7491   55.1733 O.2     1  ZINC000770814339   -0.5100
     12 N12        -9.8515   -0.2335   54.3710 N.am    1  ZINC000770814339   -0.7000
     13 C13        -9.8874    0.2641   52.9936 C.3     1  ZINC000770814339    0.1500
     14 C14        -8.4979    0.6620   52.5668 C.ar    1  ZINC000770814339   -0.0600
     15 C15        -8.0772    1.9704   52.7155 C.ar    1  ZINC000770814339   -0.1200
     16 C16        -6.8026    2.3354   52.3241 C.ar    1  ZINC000770814339   -0.0200
     17 C17        -5.9485    1.3918   51.7845 C.ar    1  ZINC000770814339   -0.6700
     18 S18        -4.3241    1.8572   51.2850 S.o2    1  ZINC000770814339    2.7000
     19 N19        -3.6670    2.7441   52.5194 N.am    1  ZINC000770814339   -1.2500
     20 O20        -3.5687    0.6561   51.2075 O.2     1  ZINC000770814339   -0.9600
     21 O21        -4.4811    2.7487   50.1896 O.2     1  ZINC000770814339   -0.9600
     22 C22        -6.3687    0.0832   51.6371 C.ar    1  ZINC000770814339   -0.0200
     23 C23        -7.6420   -0.2826   52.0321 C.ar    1  ZINC000770814339   -0.1200
     24 C24       -10.8110   -1.1619   57.1399 C.2     1  ZINC000770814339    0.0600
     25 C25       -12.1753   -1.3550   57.1743 C.2     1  ZINC000770814339   -0.2000
     26 C26       -12.4063   -2.6764   57.5538 C.2     1  ZINC000770814339    0.0400
     27 N27       -11.2531   -3.2664   57.7433 N.2     1  ZINC000770814339   -0.2600
     28 N28       -10.2290   -2.3462   57.4872 N.pl3   1  ZINC000770814339   -0.4400
     29 H29        -7.3631    1.3136   65.0299 H       1  ZINC000770814339    0.0800
     30 H30        -6.5391    1.9298   63.5775 H       1  ZINC000770814339    0.0700
     31 H31        -8.3051    2.0882   63.7333 H       1  ZINC000770814339    0.0700
     32 H32        -6.7678   -0.5377   63.4914 H       1  ZINC000770814339    0.0700
     33 H33        -8.5338   -0.3794   63.6473 H       1  ZINC000770814339    0.0700
     34 H34        -9.8342    2.0321   60.0295 H       1  ZINC000770814339    0.1100
     35 H35        -8.1108    1.7089   59.7240 H       1  ZINC000770814339    0.1100
     36 H36        -9.6137   -1.1573   54.5469 H       1  ZINC000770814339    0.4100
     37 H37       -10.2596   -0.5195   52.3338 H       1  ZINC000770814339    0.0900
     38 H38       -10.5467    1.1303   52.9373 H       1  ZINC000770814339    0.0900
     39 H39        -8.7445    2.7076   53.1370 H       1  ZINC000770814339    0.1400
     40 H40        -6.4743    3.3577   52.4395 H       1  ZINC000770814339    0.1500
     41 H41        -3.5627    2.3484   53.3988 H       1  ZINC000770814339    0.4200
     42 H42        -3.3863    3.6594   52.3630 H       1  ZINC000770814339    0.4200
     43 H43        -5.7013   -0.6541   51.2160 H       1  ZINC000770814339    0.1500
     44 H44        -7.9702   -1.3051   51.9170 H       1  ZINC000770814339    0.1400
     45 H45       -12.9295   -0.6158   56.9482 H       1  ZINC000770814339    0.1700
     46 H46       -13.3759   -3.1369   57.6724 H       1  ZINC000770814339    0.1900
     47 H47        -9.2766   -2.5182   57.5510 H       1  ZINC000770814339    0.4500
@<TRIPOS>BOND
     1     1     2    1
     2     1    29    1
     3     1    30    1
     4     1    31    1
     5     2     3    1
     6     2    32    1
     7     2    33    1
     8     3     4    1
     9     4     5    2
    10     4     6    1
    11     6     7    1
    12     6    34    1
    13     6    35    1
    14     7     8    1
    15     8     9    2
    16     9    10    1
    17     9    24    1
    18    10    11    2
    19    10    12   am
    20    12    13    1
    21    12    36    1
    22    13    14    1
    23    13    37    1
    24    13    38    1
    25    14    23   ar
    26    14    15   ar
    27    15    16   ar
    28    15    39    1
    29    16    17   ar
    30    16    40    1
    31    17    18    1
    32    17    22   ar
    33    18    19   am
    34    18    20    2
    35    18    21    2
    36    19    41    1
    37    19    42    1
    38    22    23   ar
    39    22    43    1
    40    23    44    1
    41    24    28    1
    42    24    25    2
    43    25    26    1
    44    25    45    1
    45    26    27    2
    46    26    46    1
    47    27    28    1
    48    28    47    1
@<TRIPOS>SUBSTRUCTURE
     1 ZINC000770814339        1 TEMP              0 ****  ****    0 ROOT


##########                                Name:    ZINC000047262406
##########                DOCK_Rotatable_Bonds:                   6
##########                         Heavy_Atoms:                  28
##########                    Molecular_Weight:             417.919
##########                DOCK_Rotatable_Bonds:                   6
##########                       Formal_Charge:          -0.0100002
##########                     HBond_Acceptors:                   9
##########                        HBond_Donors:                   1
##########                         Heavy_Atoms:                  28
##########                          Grid_Score:          -35.800831
##########                     Grid_vdw_energy:          -34.509941
##########                      Grid_es_energy:           -1.290890
##########           Internal_energy_repulsive:           12.937555

@<TRIPOS>MOLECULE
ZINC000047262406
 48 51 1 0 0
SMALL
USER_CHARGES


@<TRIPOS>ATOM
      1 C1        -10.5521    0.5561   55.2888 C.3     1  ZINC000047262406   -0.1500
      2 C2        -10.3714    1.4050   54.0287 C.3     1  ZINC000047262406    0.1800
      3 H3        -10.6444    2.4380   54.2443 H       1  ZINC000047262406    0.0800
      4 C4        -11.2554    0.8702   52.9317 C.2     1  ZINC000047262406    0.1700
      5 N5        -11.7140   -0.3460   52.8379 N.2     1  ZINC000047262406   -0.2500
      6 N6        -12.4348   -0.4547   51.7777 N.2     1  ZINC000047262406   -0.2700
      7 C7        -12.4612    0.7017   51.1515 C.2     1  ZINC000047262406    0.2400
      8 C8        -13.1730    1.0005   49.8999 C.2     1  ZINC000047262406   -0.1500
      9 C9        -13.7409    0.0763   49.0771 C.2     1  ZINC000047262406   -0.0600
     10 C10       -14.3519    0.6052   47.9616 C.2     1  ZINC000047262406   -0.1400
     11 C11       -14.2937    1.9370   47.8585 C.2     1  ZINC000047262406   -0.1900
     12 S12       -13.4304    2.6085   49.2351 S.3     1  ZINC000047262406    0.1700
     13 O13       -11.7182    1.5639   51.8758 O.3     1  ZINC000047262406   -0.2200
     14 N14        -8.9682    1.3491   53.5977 N.3     1  ZINC000047262406   -0.5200
     15 C15        -8.6326    2.4984   52.7475 C.3     1  ZINC000047262406    0.0500
     16 C16        -7.1339    2.4856   52.4383 C.3     1  ZINC000047262406   -0.1000
     17 C17        -6.7758    1.1782   51.7260 C.3     1  ZINC000047262406   -0.1100
     18 C18        -5.2910    1.1332   51.4723 C.2     1  ZINC000047262406    0.5100
     19 O19        -4.7395    0.0692   51.2866 O.2     1  ZINC000047262406   -0.4600
     20 N20        -4.5761    2.2756   51.4517 N.am    1  ZINC000047262406   -0.6600
     21 C21        -3.2020    2.2340   51.2169 C.ar    1  ZINC000047262406    0.3600
     22 C22        -2.3193    2.5729   52.2355 C.ar    1  ZINC000047262406   -0.2000
     23 C23        -0.9580    2.5272   51.9899 C.ar    1  ZINC000047262406   -0.0400
     24 C24        -0.5253    2.1423   50.7276 C.ar    1  ZINC000047262406   -0.1200
     25 Cl25        1.1712    2.0676   50.3667 Cl      1  ZINC000047262406   -0.0500
     26 C26        -1.4599    1.8189   49.7619 C.ar    1  ZINC000047262406    0.1500
     27 N27        -2.7510    1.8672   50.0278 N.ar    1  ZINC000047262406   -0.4600
     28 C28        -7.1797   -0.0036   52.6119 C.3     1  ZINC000047262406   -0.1100
     29 C29        -8.6770    0.0814   52.9161 C.3     1  ZINC000047262406    0.0600
     30 H30        -9.9126    0.9429   56.0822 H       1  ZINC000047262406    0.0800
     31 H31       -11.5933    0.5975   55.6086 H       1  ZINC000047262406    0.0700
     32 H32       -10.2790   -0.4769   55.0732 H       1  ZINC000047262406    0.0800
     33 H33       -13.7144   -0.9837   49.2819 H       1  ZINC000047262406    0.1600
     34 H34       -14.8423   -0.0116   47.2230 H       1  ZINC000047262406    0.1600
     35 H35       -14.7181    2.5152   47.0510 H       1  ZINC000047262406    0.1800
     36 H36        -9.1961    2.4381   51.8163 H       1  ZINC000047262406    0.0400
     37 H37        -8.8882    3.4217   53.2673 H       1  ZINC000047262406    0.0900
     38 H38        -6.8879    3.3299   51.7943 H       1  ZINC000047262406    0.0800
     39 H39        -6.5697    2.5597   53.3680 H       1  ZINC000047262406    0.0900
     40 H40        -7.3094    1.1224   50.7772 H       1  ZINC000047262406    0.1000
     41 H41        -5.0173    3.1266   51.6003 H       1  ZINC000047262406    0.4200
     42 H42        -2.6906    2.8682   53.2057 H       1  ZINC000047262406    0.1500
     43 H43        -0.2485    2.7853   52.7621 H       1  ZINC000047262406    0.1500
     44 H44        -1.1288    1.5193   48.7785 H       1  ZINC000047262406    0.1700
     45 H45        -6.9664   -0.9376   52.0920 H       1  ZINC000047262406    0.0700
     46 H46        -6.6163    0.0314   53.5444 H       1  ZINC000047262406    0.0800
     47 H47        -8.9650   -0.7508   53.5584 H       1  ZINC000047262406    0.0700
     48 H48        -9.2404    0.0325   51.9842 H       1  ZINC000047262406    0.0400
@<TRIPOS>BOND
     1     1     2    1
     2     1    30    1
     3     1    31    1
     4     1    32    1
     5     2     3    1
     6     2     4    1
     7     2    14    1
     8     4    13    1
     9     4     5    2
    10     5     6    1
    11     6     7    2
    12     7     8    1
    13     7    13    1
    14     8    12    1
    15     8     9    2
    16     9    10    1
    17     9    33    1
    18    10    11    2
    19    10    34    1
    20    11    12    1
    21    11    35    1
    22    14    29    1
    23    14    15    1
    24    15    16    1
    25    15    36    1
    26    15    37    1
    27    16    17    1
    28    16    38    1
    29    16    39    1
    30    17    18    1
    31    17    28    1
    32    17    40    1
    33    18    19    2
    34    18    20   am
    35    20    21    1
    36    20    41    1
    37    21    27   ar
    38    21    22   ar
    39    22    23   ar
    40    22    42    1
    41    23    24   ar
    42    23    43    1
    43    24    25    1
    44    24    26   ar
    45    26    27   ar
    46    26    44    1
    47    28    29    1
    48    28    45    1
    49    28    46    1
    50    29    47    1
    51    29    48    1
@<TRIPOS>SUBSTRUCTURE
     1 ZINC000047262406        1 TEMP              0 ****  ****    0 ROOT


##########                                Name:    ZINC000033150761
##########                DOCK_Rotatable_Bonds:                   7
##########                         Heavy_Atoms:                  29
##########                    Molecular_Weight:             413.407
##########                DOCK_Rotatable_Bonds:                   7
##########                       Formal_Charge:          0.00999993
##########                     HBond_Acceptors:                  10
##########                        HBond_Donors:                   1
##########                         Heavy_Atoms:                  29
##########                          Grid_Score:          -35.669281
##########                     Grid_vdw_energy:          -32.687260
##########                      Grid_es_energy:           -2.982022
##########           Internal_energy_repulsive:            7.007584

@<TRIPOS>MOLECULE
ZINC000033150761
 42 45 1 0 0
SMALL
USER_CHARGES


@<TRIPOS>ATOM
      1 O1         -3.9538    2.0869   49.9966 O.2     1  ZINC000033150761   -0.5000
      2 C2         -4.4976    1.8956   51.0637 C.2     1  ZINC000033150761    0.5200
      3 C3         -5.9188    1.3964   51.1064 C.3     1  ZINC000033150761   -0.1300
      4 C4         -6.1164    0.5255   52.3487 C.3     1  ZINC000033150761   -0.0100
      5 C5         -7.5671    0.1334   52.4619 C.2     1  ZINC000033150761    0.1800
      6 N6         -8.5195    0.8312   53.0287 N.2     1  ZINC000033150761   -0.4400
      7 C7         -9.6427    0.0912   52.8912 C.2     1  ZINC000033150761    0.2200
      8 C8        -11.0004    0.4522   53.3719 C.ar    1  ZINC000033150761    0.1900
      9 C9        -11.1988    1.6590   54.0370 C.ar    1  ZINC000033150761   -0.1300
     10 C10       -12.4708    1.9823   54.4797 C.ar    1  ZINC000033150761   -0.0700
     11 C11       -13.5020    1.0861   54.2416 C.ar    1  ZINC000033150761   -0.1500
     12 C12       -13.2330   -0.0957   53.5741 C.ar    1  ZINC000033150761    0.1100
     13 N13       -12.0149   -0.3754   53.1592 N.ar    1  ZINC000033150761   -0.4500
     14 N14        -9.3099   -1.0015   52.2555 N.2     1  ZINC000033150761   -0.3600
     15 O15        -8.1248   -0.9891   51.9976 O.3     1  ZINC000033150761    0.0900
     16 N16        -3.8289    2.1242   52.2113 N.am    1  ZINC000033150761   -0.6200
     17 C17        -2.5184    2.5845   52.1719 C.2     1  ZINC000033150761    0.2700
     18 N18        -1.5692    2.0819   51.4456 N.2     1  ZINC000033150761   -0.5000
     19 C19        -0.3759    2.6523   51.5358 C.2     1  ZINC000033150761    0.1200
     20 C20         0.7926    2.1734   50.7576 C.ar    1  ZINC000033150761    0.0000
     21 C21         0.6352    1.7847   49.4287 C.ar    1  ZINC000033150761   -0.0800
     22 C22         1.7247    1.3400   48.7073 C.ar    1  ZINC000033150761   -0.1200
     23 C23         2.9738    1.2793   49.3014 C.ar    1  ZINC000033150761    0.0700
     24 F24         4.0372    0.8434   48.5913 F       1  ZINC000033150761   -0.1300
     25 C25         3.1366    1.6655   50.6244 C.ar    1  ZINC000033150761    0.0700
     26 F26         4.3574    1.6051   51.1998 F       1  ZINC000033150761   -0.1300
     27 C27         2.0522    2.1165   51.3520 C.ar    1  ZINC000033150761   -0.1000
     28 C28        -0.2979    3.6953   52.3814 C.2     1  ZINC000033150761   -0.2800
     29 S29        -1.8896    3.9460   53.0950 S.3     1  ZINC000033150761    0.2200
     30 H30        -6.6012    2.2456   51.1458 H       1  ZINC000033150761    0.1200
     31 H31        -6.1239    0.8067   50.2130 H       1  ZINC000033150761    0.1200
     32 H32        -5.5030   -0.3717   52.2647 H       1  ZINC000033150761    0.1300
     33 H33        -5.8210    1.0857   53.2359 H       1  ZINC000033150761    0.1200
     34 H34       -10.3724    2.3335   54.2057 H       1  ZINC000033150761    0.1400
     35 H35       -12.6553    2.9112   54.9989 H       1  ZINC000033150761    0.1500
     36 H36       -14.5053    1.3082   54.5742 H       1  ZINC000033150761    0.1400
     37 H37       -14.0334   -0.7960   53.3868 H       1  ZINC000033150761    0.1700
     38 H38        -4.2625    1.9675   53.0648 H       1  ZINC000033150761    0.4300
     39 H39        -0.3384    1.8310   48.9638 H       1  ZINC000033150761    0.1400
     40 H40         1.6026    1.0384   47.6775 H       1  ZINC000033150761    0.1500
     41 H41         2.1787    2.4171   52.3816 H       1  ZINC000033150761    0.1600
     42 H42         0.5864    4.2809   52.5845 H       1  ZINC000033150761    0.1800
@<TRIPOS>BOND
     1     1     2    2
     2     2     3    1
     3     2    16   am
     4     3     4    1
     5     3    30    1
     6     3    31    1
     7     4     5    1
     8     4    32    1
     9     4    33    1
    10     5    15    1
    11     5     6    2
    12     6     7    1
    13     7     8    1
    14     7    14    2
    15     8    13   ar
    16     8     9   ar
    17     9    10   ar
    18     9    34    1
    19    10    11   ar
    20    10    35    1
    21    11    12   ar
    22    11    36    1
    23    12    13   ar
    24    12    37    1
    25    14    15    1
    26    16    17    1
    27    16    38    1
    28    17    29    1
    29    17    18    2
    30    18    19    1
    31    19    20    1
    32    19    28    2
    33    20    27   ar
    34    20    21   ar
    35    21    22   ar
    36    21    39    1
    37    22    23   ar
    38    22    40    1
    39    23    24    1
    40    23    25   ar
    41    25    26    1
    42    25    27   ar
    43    27    41    1
    44    28    29    1
    45    28    42    1
@<TRIPOS>SUBSTRUCTURE
     1 ZINC000033150761        1 TEMP              0 ****  ****    0 ROOT


##########                                Name:    ZINC000558213406
##########                DOCK_Rotatable_Bonds:                   8
##########                         Heavy_Atoms:                  30
##########                    Molecular_Weight:               408.5
##########                DOCK_Rotatable_Bonds:                   8
##########                       Formal_Charge:          -0.0299987
##########                     HBond_Acceptors:                   7
##########                        HBond_Donors:                   2
##########                         Heavy_Atoms:                  30
##########                          Grid_Score:          -35.657955
##########                     Grid_vdw_energy:          -34.817013
##########                      Grid_es_energy:           -0.840943
##########           Internal_energy_repulsive:           12.884305

@<TRIPOS>MOLECULE
ZINC000558213406
 58 61 1 0 0
SMALL
USER_CHARGES


@<TRIPOS>ATOM
      1 O1         -8.5165    0.0506   52.4873 O.2     1  ZINC000558213406   -0.5700
      2 C2         -8.4408    0.7309   53.4922 C.2     1  ZINC000558213406    0.7100
      3 N3         -7.4010    1.5719   53.6600 N.am    1  ZINC000558213406   -0.6800
      4 C4         -6.4041    1.6580   52.6789 C.ar    1  ZINC000558213406    0.1700
      5 C5         -6.2301    2.8375   51.9673 C.ar    1  ZINC000558213406   -0.1300
      6 C6         -5.2473    2.9219   51.0010 C.ar    1  ZINC000558213406   -0.1100
      7 C7         -4.4341    1.8283   50.7407 C.ar    1  ZINC000558213406    0.0600
      8 O8         -3.4669    1.9119   49.7889 O.3     1  ZINC000558213406   -0.2500
      9 C9         -2.1870    2.1183   50.1964 C.ar    1  ZINC000558213406    0.0700
     10 C10        -1.9206    2.5645   51.4870 C.ar    1  ZINC000558213406   -0.1500
     11 C11        -0.5995    2.7605   51.8563 C.ar    1  ZINC000558213406   -0.1300
     12 C12         0.4025    2.5081   50.9382 C.ar    1  ZINC000558213406    0.0600
     13 N13         0.1159    2.0861   49.7220 N.ar    1  ZINC000558213406   -0.4500
     14 C14        -1.1266    1.8814   49.3330 C.ar    1  ZINC000558213406    0.0800
     15 C15        -4.6073    0.6497   51.4519 C.ar    1  ZINC000558213406   -0.1000
     16 C16        -5.5863    0.5658   52.4221 C.ar    1  ZINC000558213406   -0.1100
     17 N17        -9.3995    0.6482   54.4359 N.am    1  ZINC000558213406   -0.7300
     18 C18       -10.5298   -0.2660   54.2535 C.3     1  ZINC000558213406    0.1500
     19 H19       -10.1878   -1.3008   54.2346 H       1  ZINC000558213406    0.1100
     20 C20       -11.5892   -0.0580   55.3678 C.3     1  ZINC000558213406   -0.1400
     21 C21       -12.8818   -0.5376   54.6614 C.3     1  ZINC000558213406    0.1000
     22 N22       -12.7392   -0.0848   53.2656 N.am    1  ZINC000558213406   -0.6200
     23 C23       -13.7522    0.1421   52.4061 C.2     1  ZINC000558213406    0.5400
     24 O24       -14.8991   -0.0261   52.7626 O.2     1  ZINC000558213406   -0.5300
     25 C25       -13.4597    0.6047   51.0019 C.3     1  ZINC000558213406   -0.1000
     26 C26       -14.5352    0.0699   50.0544 C.3     1  ZINC000558213406   -0.1100
     27 C27       -14.2382    0.5396   48.6288 C.3     1  ZINC000558213406   -0.1200
     28 C28       -14.2354    2.0689   48.5859 C.3     1  ZINC000558213406   -0.1200
     29 C29       -13.1599    2.6037   49.5336 C.3     1  ZINC000558213406   -0.1200
     30 C30       -13.4569    2.1340   50.9591 C.3     1  ZINC000558213406   -0.1100
     31 C31       -11.3061    0.0762   52.9644 C.3     1  ZINC000558213406    0.1000
     32 H32        -7.3427    2.1175   54.4598 H       1  ZINC000558213406    0.4100
     33 H33        -6.8635    3.6885   52.1693 H       1  ZINC000558213406    0.1300
     34 H34        -5.1119    3.8394   50.4475 H       1  ZINC000558213406    0.1400
     35 H35        -2.7237    2.7539   52.1836 H       1  ZINC000558213406    0.1400
     36 H36        -0.3555    3.1065   52.8499 H       1  ZINC000558213406    0.1400
     37 H37         1.4340    2.6590   51.2204 H       1  ZINC000558213406    0.1600
     38 H38        -1.3222    1.5351   48.3289 H       1  ZINC000558213406    0.1700
     39 H39        -3.9739   -0.2013   51.2489 H       1  ZINC000558213406    0.1400
     40 H40        -5.7207   -0.3517   52.9757 H       1  ZINC000558213406    0.1500
     41 H41        -9.3412    1.1938   55.2357 H       1  ZINC000558213406    0.4000
     42 H42       -11.3674   -0.6759   56.2380 H       1  ZINC000558213406    0.0900
     43 H43       -11.6629    0.9933   55.6456 H       1  ZINC000558213406    0.0800
     44 H44       -12.9554   -1.6243   54.7020 H       1  ZINC000558213406    0.0700
     45 H45       -13.7575   -0.0797   55.1212 H       1  ZINC000558213406    0.0800
     46 H46       -12.4838    0.2307   50.6922 H       1  ZINC000558213406    0.0900
     47 H47       -14.5373   -1.0198   50.0849 H       1  ZINC000558213406    0.0600
     48 H48       -15.5111    0.4438   50.3642 H       1  ZINC000558213406    0.0700
     49 H49       -13.2624    0.1655   48.3189 H       1  ZINC000558213406    0.0600
     50 H50       -15.0045    0.1586   47.9537 H       1  ZINC000558213406    0.0700
     51 H51       -14.0239    2.4035   47.5704 H       1  ZINC000558213406    0.0600
     52 H52       -15.2113    2.4428   48.8958 H       1  ZINC000558213406    0.0600
     53 H53       -12.1841    2.2298   49.2237 H       1  ZINC000558213406    0.0600
     54 H54       -13.1579    3.6933   49.5029 H       1  ZINC000558213406    0.0700
     55 H55       -14.4327    2.5081   51.2690 H       1  ZINC000558213406    0.0800
     56 H56       -12.6906    2.5150   51.6342 H       1  ZINC000558213406    0.0600
     57 H57       -11.1019    1.1066   52.6738 H       1  ZINC000558213406    0.0800
     58 H58       -11.0177   -0.6019   52.1611 H       1  ZINC000558213406    0.0800
@<TRIPOS>BOND
     1     1     2    2
     2     2     3   am
     3     2    17   am
     4     3     4    1
     5     3    32    1
     6     4    16   ar
     7     4     5   ar
     8     5     6   ar
     9     5    33    1
    10     6     7   ar
    11     6    34    1
    12     7     8    1
    13     7    15   ar
    14     8     9    1
    15     9    14   ar
    16     9    10   ar
    17    10    11   ar
    18    10    35    1
    19    11    12   ar
    20    11    36    1
    21    12    13   ar
    22    12    37    1
    23    13    14   ar
    24    14    38    1
    25    15    16   ar
    26    15    39    1
    27    16    40    1
    28    17    18    1
    29    17    41    1
    30    18    19    1
    31    18    31    1
    32    18    20    1
    33    20    21    1
    34    20    42    1
    35    20    43    1
    36    21    22    1
    37    21    44    1
    38    21    45    1
    39    22    23   am
    40    22    31    1
    41    23    24    2
    42    23    25    1
    43    25    30    1
    44    25    26    1
    45    25    46    1
    46    26    27    1
    47    26    47    1
    48    26    48    1
    49    27    28    1
    50    27    49    1
    51    27    50    1
    52    28    29    1
    53    28    51    1
    54    28    52    1
    55    29    30    1
    56    29    53    1
    57    29    54    1
    58    30    55    1
    59    30    56    1
    60    31    57    1
    61    31    58    1
@<TRIPOS>SUBSTRUCTURE
     1 ZINC000558213406        1 TEMP              0 ****  ****    0 ROOT


##########                                Name:     oleObject70.pdb
##########                DOCK_Rotatable_Bonds:                   9
##########                         Heavy_Atoms:                  35
##########                    Molecular_Weight:             504.458
##########                DOCK_Rotatable_Bonds:                   9
##########                       Formal_Charge:          0.00010002
##########                     HBond_Acceptors:                   6
##########                        HBond_Donors:                   2
##########                         Heavy_Atoms:                  35
##########                          Grid_Score:          -35.588432
##########                     Grid_vdw_energy:          -35.426250
##########                      Grid_es_energy:           -0.162182
##########           Internal_energy_repulsive:           12.837839

@<TRIPOS>MOLECULE
oleObject70.pdb
 62 65 1 0 0
SMALL
NO_CHARGES


@<TRIPOS>ATOM
      1 C         -16.0018   -3.0486   48.8993 C.ar    1  UNL        -0.0620
      2 C         -15.1597   -2.0189   48.4558 C.ar    1  UNL        -0.0590
      3 C         -14.7582   -0.9901   49.3300 C.ar    1  UNL        -0.0456
      4 C         -15.2014   -0.9995   50.6773 C.ar    1  UNL        -0.0187
      5 C         -16.0611   -2.0352   51.1039 C.ar    1  UNL        -0.0565
      6 C         -16.4566   -3.0535   50.2241 C.ar    1  UNL        -0.0619
      7 C         -14.7834    0.1076   51.6614 C.3     1  UNL         0.0909
      8 C         -15.6465    0.1715   52.9335 C.ar    1  UNL         0.0681
      9 C         -16.9420    0.7483   52.9291 C.ar    1  UNL        -0.0272
     10 C         -17.6680    0.7731   54.1350 C.ar    1  UNL        -0.0559
     11 C         -17.0927    0.2270   55.2913 C.ar    1  UNL        -0.0435
     12 C         -15.8086   -0.3302   55.2037 C.ar    1  UNL         0.0272
     13 N         -15.1068   -0.3591   54.0557 N.ar    1  UNL        -0.2587
     14 C         -17.5661    1.3427   51.6714 C.3     1  UNL        -0.0379
     15 N         -13.3237    0.1410   51.9012 N.am    1  UNL        -0.2987
     16 C         -12.6310    1.0634   52.6757 C.2     1  UNL         0.2437
     17 O         -13.1855    1.9726   53.2691 O.2     1  UNL        -0.2719
     18 C         -11.1350    0.8750   52.7591 C.ar    1  UNL         0.0371
     19 C         -10.5182   -0.3687   52.4949 C.ar    1  UNL        -0.0494
     20 C          -9.1231   -0.5082   52.5804 C.ar    1  UNL        -0.0570
     21 C          -8.3179    0.5882   52.9307 C.ar    1  UNL        -0.0341
     22 C          -8.9225    1.8286   53.1927 C.ar    1  UNL        -0.0570
     23 C         -10.3172    1.9696   53.1087 C.ar    1  UNL        -0.0494
     24 C          -6.8085    0.4354   53.0150 C.3     1  UNL         0.0208
     25 N          -6.2453   -0.0209   51.7381 N.4     1  UNL        -0.3086
     26 C          -6.1011    1.0460   50.7388 C.3     1  UNL         0.0223
     27 C          -4.8553    1.8840   50.9928 C.ar    1  UNL        -0.0154
     28 C          -3.5957    1.2554   51.0236 C.ar    1  UNL        -0.0548
     29 C          -2.4301    2.0051   51.2512 C.ar    1  UNL        -0.0431
     30 C          -2.5168    3.3920   51.4481 C.ar    1  UNL         0.0421
     31 C          -3.7669    4.0293   51.4161 C.ar    1  UNL        -0.0245
     32 C          -4.9341    3.2803   51.1886 C.ar    1  UNL         0.0465
     33 CL         -6.4719    4.1236   51.1487 Cl      1  UNL        -0.0839
     34 CL         -1.0645    4.3279   51.7309 Cl      1  UNL        -0.0843
     35 C         -13.8641    0.1189   48.7840 C.3     1  UNL        -0.0394
     36 H         -16.3088   -3.8344   48.2152 H       1  UNL         0.0623
     37 H         -14.8230   -2.0189   47.4230 H       1  UNL         0.0626
     38 H         -16.4387   -2.0524   52.1207 H       1  UNL         0.0627
     39 H         -17.1191   -3.8421   50.5690 H       1  UNL         0.0623
     40 H         -14.9717    1.0511   51.1405 H       1  UNL         0.0624
     41 H         -18.6615    1.2104   54.1772 H       1  UNL         0.0627
     42 H         -17.6294    0.2348   56.2352 H       1  UNL         0.0639
     43 H         -15.3253   -0.7647   56.0777 H       1  UNL         0.0840
     44 H         -17.0037    2.2194   51.3277 H       1  UNL         0.0280
     45 H         -18.5988    1.6677   51.8491 H       1  UNL         0.0280
     46 H         -17.5924    0.6108   50.8552 H       1  UNL         0.0280
     47 H         -12.7734   -0.5763   51.4500 H       1  UNL         0.1508
     48 H         -11.1065   -1.2386   52.2217 H       1  UNL         0.0631
     49 H          -8.6657   -1.4710   52.3698 H       1  UNL         0.0626
     50 H          -8.3117    2.6867   53.4594 H       1  UNL         0.0626
     51 H         -10.7611    2.9395   53.3153 H       1  UNL         0.0631
     52 H          -6.5634   -0.2838   53.8074 H       1  UNL         0.0479
     53 H          -6.3637    1.3997   53.2932 H       1  UNL         0.0479
     54 H          -6.8391   -0.7568   51.3562 H       1  UNL         0.1229
     55 H          -6.9858    1.6951   50.7661 H       1  UNL         0.0480
     56 H          -6.0485    0.6119   49.7320 H       1  UNL         0.0480
     57 H          -3.5192    0.1829   50.8674 H       1  UNL         0.0627
     58 H          -1.4627    1.5114   51.2728 H       1  UNL         0.0639
     59 H          -3.8316    5.1032   51.5656 H       1  UNL         0.0654
     60 H         -13.7455    0.0456   47.6956 H       1  UNL         0.0280
     61 H         -12.8616    0.0706   49.2268 H       1  UNL         0.0280
     62 H         -14.2851    1.1095   48.9969 H       1  UNL         0.0280
@<TRIPOS>BOND
     1     1     2   ar
     2     1     6   ar
     3     1    36    1
     4     2     3   ar
     5     2    37    1
     6     3     4   ar
     7     3    35    1
     8     4     5   ar
     9     4     7    1
    10     5     6   ar
    11     5    38    1
    12     6    39    1
    13     7     8    1
    14     7    15    1
    15     7    40    1
    16     8     9   ar
    17     8    13   ar
    18     9    10   ar
    19     9    14    1
    20    10    11   ar
    21    10    41    1
    22    11    12   ar
    23    11    42    1
    24    12    13   ar
    25    12    43    1
    26    14    44    1
    27    14    45    1
    28    14    46    1
    29    15    16   am
    30    15    47    1
    31    16    17    2
    32    16    18    1
    33    18    19   ar
    34    18    23   ar
    35    19    20   ar
    36    19    48    1
    37    20    21   ar
    38    20    49    1
    39    21    22   ar
    40    21    24    1
    41    22    23   ar
    42    22    50    1
    43    23    51    1
    44    24    25    1
    45    24    52    1
    46    24    53    1
    47    25    26    1
    48    25    54    1
    49    26    27    1
    50    26    55    1
    51    26    56    1
    52    27    28   ar
    53    27    32   ar
    54    28    29   ar
    55    28    57    1
    56    29    30   ar
    57    29    58    1
    58    30    31   ar
    59    30    34    1
    60    31    32   ar
    61    31    59    1
    62    32    33    1
    63    35    60    1
    64    35    61    1
    65    35    62    1
@<TRIPOS>SUBSTRUCTURE
     1 UNL         1 TEMP              0 ****  ****    0 ROOT


##########                                Name:    ZINC000439870054
##########                DOCK_Rotatable_Bonds:                   5
##########                         Heavy_Atoms:                  27
##########                    Molecular_Weight:             421.974
##########                DOCK_Rotatable_Bonds:                   5
##########                       Formal_Charge:           0.0200003
##########                     HBond_Acceptors:                   9
##########                        HBond_Donors:                   0
##########                         Heavy_Atoms:                  27
##########                          Grid_Score:          -35.573586
##########                     Grid_vdw_energy:          -35.238792
##########                      Grid_es_energy:           -0.334793
##########           Internal_energy_repulsive:           63.441460

@<TRIPOS>MOLECULE
ZINC000439870054
 47 50 1 0 0
SMALL
USER_CHARGES


@<TRIPOS>ATOM
      1 C1         -2.4530    3.7637   54.1464 C.3     1  ZINC000439870054   -0.1400
      2 C2         -2.6824    4.0192   52.6555 C.3     1  ZINC000439870054    0.0000
      3 C3         -1.3363    4.2430   51.9633 C.3     1  ZINC000439870054   -0.1400
      4 C4         -3.3708    2.8274   52.0416 C.2     1  ZINC000439870054    0.1900
      5 N5         -2.7938    1.8328   51.4178 N.2     1  ZINC000439870054   -0.2900
      6 N6         -3.6861    0.9910   51.0212 N.2     1  ZINC000439870054   -0.2700
      7 C7         -4.8621    1.4118   51.3714 C.2     1  ZINC000439870054    0.1600
      8 C8         -6.2066    0.7733   51.1188 C.3     1  ZINC000439870054    0.2400
      9 H9         -6.4640    0.8533   50.0627 H       1  ZINC000439870054    0.1100
     10 C10        -6.1728   -0.6979   51.5376 C.3     1  ZINC000439870054   -0.1300
     11 N11        -7.1921    1.5081   51.9345 N.am    1  ZINC000439870054   -0.6300
     12 C12        -8.1439    0.8530   52.6283 C.2     1  ZINC000439870054    0.5300
     13 O13        -8.1987   -0.3579   52.5877 O.2     1  ZINC000439870054   -0.4900
     14 C14        -9.1399    1.6251   53.4546 C.3     1  ZINC000439870054   -0.0700
     15 C15        -9.9296    0.6696   54.3116 C.2     1  ZINC000439870054    0.0900
     16 C16       -10.7777   -0.2193   53.7862 C.2     1  ZINC000439870054   -0.2400
     17 S17       -11.4983   -1.1417   55.1037 S.3     1  ZINC000439870054    0.1300
     18 C18       -10.5570   -0.2097   56.2653 C.2     1  ZINC000439870054    0.1400
     19 C19       -10.5889   -0.3834   57.7256 C.2     1  ZINC000439870054   -0.1300
     20 C20       -11.3398   -1.2909   58.3870 C.2     1  ZINC000439870054   -0.1000
     21 C21       -11.2004   -1.2640   59.7578 C.2     1  ZINC000439870054   -0.1200
     22 C22       -10.3448   -0.3456   60.2227 C.2     1  ZINC000439870054   -0.1500
     23 Cl23       -9.9724   -0.0855   61.8983 Cl      1  ZINC000439870054    0.0000
     24 S24        -9.6495    0.5531   58.8807 S.3     1  ZINC000439870054    0.2500
     25 N25        -9.8227    0.6557   55.6211 N.2     1  ZINC000439870054   -0.4400
     26 C26        -7.1061    2.9760   51.9692 C.3     1  ZINC000439870054    0.0900
     27 C27        -5.7747    3.3893   52.6074 C.3     1  ZINC000439870054    0.0900
     28 N28        -4.6963    2.5829   52.0374 N.pl3   1  ZINC000439870054   -0.4700
     29 H29        -1.9550    4.6257   54.5903 H       1  ZINC000439870054    0.0700
     30 H30        -3.4119    3.6043   54.6395 H       1  ZINC000439870054    0.0500
     31 H31        -1.8285    2.8791   54.2715 H       1  ZINC000439870054    0.0700
     32 H32        -3.3068    4.9038   52.5302 H       1  ZINC000439870054    0.0800
     33 H33        -1.4997    4.4250   50.9011 H       1  ZINC000439870054    0.0500
     34 H34        -0.8384    5.1050   52.4072 H       1  ZINC000439870054    0.0700
     35 H35        -0.7119    3.3584   52.0885 H       1  ZINC000439870054    0.0700
     36 H36        -6.0805   -0.7652   52.6215 H       1  ZINC000439870054    0.0600
     37 H37        -7.0937   -1.1873   51.2202 H       1  ZINC000439870054    0.0900
     38 H38        -5.3201   -1.1895   51.0691 H       1  ZINC000439870054    0.0700
     39 H39        -8.6113    2.3334   54.0926 H       1  ZINC000439870054    0.1100
     40 H40        -9.8177    2.1663   52.7945 H       1  ZINC000439870054    0.1200
     41 H41       -10.9861   -0.3497   52.7345 H       1  ZINC000439870054    0.1800
     42 H42       -11.9977   -1.9824   57.8816 H       1  ZINC000439870054    0.1500
     43 H43       -11.7419   -1.9343   60.4089 H       1  ZINC000439870054    0.1600
     44 H44        -7.1602    3.3679   50.9535 H       1  ZINC000439870054    0.0900
     45 H45        -7.9317    3.3750   52.5585 H       1  ZINC000439870054    0.1200
     46 H46        -5.5877    4.4446   52.4086 H       1  ZINC000439870054    0.1100
     47 H47        -5.8194    3.2228   53.6837 H       1  ZINC000439870054    0.0900
@<TRIPOS>BOND
     1     1     2    1
     2     1    29    1
     3     1    30    1
     4     1    31    1
     5     2     3    1
     6     2     4    1
     7     2    32    1
     8     3    33    1
     9     3    34    1
    10     3    35    1
    11     4    28    1
    12     4     5    2
    13     5     6    1
    14     6     7    2
    15     7    28    1
    16     7     8    1
    17     8     9    1
    18     8    10    1
    19     8    11    1
    20    10    36    1
    21    10    37    1
    22    10    38    1
    23    11    12   am
    24    11    26    1
    25    12    13    2
    26    12    14    1
    27    14    15    1
    28    14    39    1
    29    14    40    1
    30    15    25    1
    31    15    16    2
    32    16    17    1
    33    16    41    1
    34    17    18    1
    35    18    19    1
    36    18    25    2
    37    19    24    1
    38    19    20    2
    39    20    21    1
    40    20    42    1
    41    21    22    2
    42    21    43    1
    43    22    23    1
    44    22    24    1
    45    26    27    1
    46    26    44    1
    47    26    45    1
    48    27    28    1
    49    27    46    1
    50    27    47    1
@<TRIPOS>SUBSTRUCTURE
     1 ZINC000439870054        1 TEMP              0 ****  ****    0 ROOT


##########                                Name:    ZINC000193795672
##########                DOCK_Rotatable_Bonds:                  10
##########                         Heavy_Atoms:                  23
##########                    Molecular_Weight:              332.47
##########                DOCK_Rotatable_Bonds:                  10
##########                       Formal_Charge:        -2.98023e-07
##########                     HBond_Acceptors:                   6
##########                        HBond_Donors:                   3
##########                         Heavy_Atoms:                  23
##########                          Grid_Score:          -35.565552
##########                     Grid_vdw_energy:          -34.427834
##########                      Grid_es_energy:           -1.137719
##########           Internal_energy_repulsive:            6.138065

@<TRIPOS>MOLECULE
ZINC000193795672
 47 48 1 0 0
SMALL
USER_CHARGES


@<TRIPOS>ATOM
      1 C1          1.8266    2.3655   50.4248 C.3     1  <0>        -0.1000
      2 C2          0.3227    2.2703   50.4485 C.ar    1  <0>        -0.2000
      3 C3         -0.3944    2.7665   51.5289 C.ar    1  <0>        -0.0300
      4 C4         -1.7735    2.6595   51.5109 C.ar    1  <0>        -0.2400
      5 C5         -2.3915    2.0620   50.4174 C.ar    1  <0>         0.4000
      6 N6         -3.7766    1.9480   50.3863 N.pl3   1  <0>        -0.7300
      7 C7         -4.4900    1.3716   51.5286 C.3     1  <0>         0.1300
      8 C8         -5.9817    1.6914   51.4125 C.3     1  <0>        -0.1400
      9 C9         -6.7984    0.5246   51.9714 C.3     1  <0>         0.1400
     10 N10        -8.1595    0.9787   52.2672 N.am    1  <0>        -0.7500
     11 C11        -9.1184    0.0814   52.5701 C.2     1  <0>         0.7100
     12 O12        -8.8542   -1.1052   52.5966 O.2     1  <0>        -0.5900
     13 N13       -10.3702    0.4992   52.8439 N.am    1  <0>        -0.7400
     14 C14       -11.4120   -0.4760   53.1749 C.3     1  <0>         0.1700
     15 H15       -11.2959   -1.3591   52.5466 H       1  <0>         0.0900
     16 C16       -11.2865   -0.8767   54.6462 C.3     1  <0>        -0.1700
     17 C17       -12.7886    0.1458   52.9313 C.3     1  <0>        -0.0600
     18 C18       -12.8727    0.6386   51.5097 C.2     1  <0>        -0.1700
     19 C19       -12.5667    1.8719   51.1040 C.2     1  <0>        -0.1400
     20 C20       -12.7213    2.0946   49.7466 C.2     1  <0>        -0.1300
     21 C21       -13.1528    1.0421   49.0499 C.2     1  <0>        -0.2100
     22 S22       -13.3820   -0.3267   50.1304 S.3     1  <0>         0.0900
     23 N23        -1.6723    1.6012   49.4056 N.ar    1  <0>        -0.5400
     24 C24        -0.3561    1.6939   49.3935 C.ar    1  <0>         0.1500
     25 H25         2.1238    3.3056   49.9601 H       1  <0>         0.0700
     26 H26         2.2092    2.3276   51.4448 H       1  <0>         0.0600
     27 H27         2.2344    1.5324   49.8525 H       1  <0>         0.0700
     28 H28         0.1131    3.2252   52.3647 H       1  <0>         0.1300
     29 H29        -2.3624    3.0346   52.3350 H       1  <0>         0.1300
     30 H30        -4.2707    2.2503   49.6082 H       1  <0>         0.4000
     31 H31        -4.3498    0.2907   51.5367 H       1  <0>         0.0700
     32 H32        -4.0984    1.7957   52.4532 H       1  <0>         0.0700
     33 H33        -6.2047    2.5954   51.9793 H       1  <0>         0.0800
     34 H34        -6.2395    1.8465   50.3648 H       1  <0>         0.0800
     35 H35        -6.8353   -0.2786   51.2355 H       1  <0>         0.0700
     36 H36        -6.3308    0.1587   52.8854 H       1  <0>         0.0700
     37 H37        -8.3706    1.9252   52.2450 H       1  <0>         0.4000
     38 H38       -10.5813    1.4458   52.8216 H       1  <0>         0.3900
     39 H39       -11.4027    0.0063   55.2745 H       1  <0>         0.0600
     40 H40       -12.0617   -1.6024   54.8925 H       1  <0>         0.0700
     41 H41       -10.3059   -1.3197   54.8197 H       1  <0>         0.0700
     42 H42       -13.5612   -0.6038   53.1024 H       1  <0>         0.1000
     43 H43       -12.9357    0.9818   53.6150 H       1  <0>         0.0800
     44 H44       -12.2246    2.6387   51.7832 H       1  <0>         0.1400
     45 H45       -12.5089    3.0483   49.2864 H       1  <0>         0.1400
     46 H46       -13.3307    1.0310   47.9847 H       1  <0>         0.1600
     47 H47         0.1977    1.3069   48.5510 H       1  <0>         0.1500
@<TRIPOS>BOND
     1     1     2    1
     2     1    25    1
     3     1    26    1
     4     1    27    1
     5     2    24   ar
     6     2     3   ar
     7     3     4   ar
     8     3    28    1
     9     4     5   ar
    10     4    29    1
    11     5     6    1
    12     5    23   ar
    13     6     7    1
    14     6    30    1
    15     7     8    1
    16     7    31    1
    17     7    32    1
    18     8     9    1
    19     8    33    1
    20     8    34    1
    21     9    10    1
    22     9    35    1
    23     9    36    1
    24    10    11   am
    25    10    37    1
    26    11    12    2
    27    11    13   am
    28    13    14    1
    29    13    38    1
    30    14    15    1
    31    14    16    1
    32    14    17    1
    33    16    39    1
    34    16    40    1
    35    16    41    1
    36    17    18    1
    37    17    42    1
    38    17    43    1
    39    18    22    1
    40    18    19    2
    41    19    20    1
    42    19    44    1
    43    20    21    2
    44    20    45    1
    45    21    22    1
    46    21    46    1
    47    23    24   ar
    48    24    47    1
@<TRIPOS>SUBSTRUCTURE
     1 <0>         1 TEMP              0 ****  ****    0 ROOT


##########                                Name:    ZINC000599797189
##########                DOCK_Rotatable_Bonds:                  13
##########                         Heavy_Atoms:                  23
##########                    Molecular_Weight:             329.313
##########                DOCK_Rotatable_Bonds:                  13
##########                       Formal_Charge:          0.00999949
##########                     HBond_Acceptors:                  11
##########                        HBond_Donors:                   3
##########                         Heavy_Atoms:                  23
##########                          Grid_Score:          -35.558674
##########                     Grid_vdw_energy:          -33.906803
##########                      Grid_es_energy:           -1.651869
##########           Internal_energy_repulsive:           16.852112

@<TRIPOS>MOLECULE
ZINC000599797189
 42 42 1 0 0
SMALL
USER_CHARGES


@<TRIPOS>ATOM
      1 C1         -2.6302    2.3106   51.1314 C.3     1  ZINC000599797189   -0.1500
      2 C2         -4.1431    2.1977   50.9329 C.3     1  ZINC000599797189    0.0600
      3 O3         -4.5801    0.8608   51.2934 O.3     1  ZINC000599797189   -0.3600
      4 C4         -5.8749    0.5685   51.0940 C.2     1  ZINC000599797189    0.4500
      5 O5         -6.5465    1.2638   50.3692 O.2     1  ZINC000599797189   -0.4800
      6 C6         -6.4909   -0.6269   51.7742 C.3     1  ZINC000599797189    0.1500
      7 N7         -7.6906   -0.2091   52.5038 N.pl3   1  ZINC000599797189   -0.3800
      8 C8         -7.8300    0.8945   53.2574 C.2     1  ZINC000599797189    0.2800
      9 N9         -9.0472    0.9103   53.7380 N.2     1  ZINC000599797189   -0.5100
     10 C10        -9.7149   -0.1666   53.3134 C.2     1  ZINC000599797189    0.4700
     11 N11       -11.0415   -0.4787   53.6285 N.am    1  ZINC000599797189   -0.6400
     12 C12       -11.4309   -0.5431   54.9173 C.2     1  ZINC000599797189    0.7100
     13 O13       -10.6286   -0.3315   55.8060 O.2     1  ZINC000599797189   -0.5300
     14 N14       -12.7095   -0.8422   55.2207 N.am    1  ZINC000599797189   -0.7300
     15 C15       -13.1332   -0.9105   56.6215 C.3     1  ZINC000599797189    0.1100
     16 C16       -14.4803   -1.6300   56.7124 C.3     1  ZINC000599797189    0.1100
     17 H17       -15.1303   -1.2873   55.9074 H       1  ZINC000599797189    0.1200
     18 O18       -14.2765   -3.0394   56.5929 O.3     1  ZINC000599797189   -0.5400
     19 C19       -15.1332   -1.3217   58.0614 C.3     1  ZINC000599797189   -0.1500
     20 C20       -14.7107   -2.3564   59.0722 C.2     1  ZINC000599797189    0.4600
     21 O21       -13.5870   -2.3436   59.5162 O.2     1  ZINC000599797189   -0.4900
     22 O22       -15.5826   -3.2922   59.4792 O.3     1  ZINC000599797189   -0.3600
     23 C23       -16.8988   -3.2780   58.8661 C.3     1  ZINC000599797189    0.0400
     24 N24        -8.9235   -0.8800   52.5485 N.2     1  ZINC000599797189   -0.3200
     25 H25        -2.3021    3.3142   50.8608 H       1  ZINC000599797189    0.0800
     26 H26        -2.3854    2.1175   52.1758 H       1  ZINC000599797189    0.0700
     27 H27        -2.1253    1.5804   50.4989 H       1  ZINC000599797189    0.0700
     28 H28        -4.6480    2.9279   51.5654 H       1  ZINC000599797189    0.0700
     29 H29        -4.3879    2.3908   49.8885 H       1  ZINC000599797189    0.0700
     30 H30        -6.7617   -1.3714   51.0255 H       1  ZINC000599797189    0.1500
     31 H31        -5.7730   -1.0579   52.4720 H       1  ZINC000599797189    0.1300
     32 H32        -7.0690    1.6397   53.4360 H       1  ZINC000599797189    0.2300
     33 H33       -11.6814   -0.6486   52.9195 H       1  ZINC000599797189    0.4200
     34 H34       -13.3493   -1.0121   54.5117 H       1  ZINC000599797189    0.4000
     35 H35       -12.3890   -1.4580   57.1998 H       1  ZINC000599797189    0.0800
     36 H36       -13.2327    0.0989   57.0206 H       1  ZINC000599797189    0.0800
     37 H37       -14.0050   -3.3241   55.7096 H       1  ZINC000599797189    0.3800
     38 H38       -14.8197   -0.3341   58.3996 H       1  ZINC000599797189    0.1200
     39 H39       -16.2177   -1.3413   57.9530 H       1  ZINC000599797189    0.1200
     40 H40       -17.3819   -2.3214   59.0648 H       1  ZINC000599797189    0.0600
     41 H41       -16.7998   -3.4184   57.7897 H       1  ZINC000599797189    0.0600
     42 H42       -17.5027   -4.0838   59.2836 H       1  ZINC000599797189    0.1000
@<TRIPOS>BOND
     1     1     2    1
     2     1    25    1
     3     1    26    1
     4     1    27    1
     5     2     3    1
     6     2    28    1
     7     2    29    1
     8     3     4    1
     9     4     5    2
    10     4     6    1
    11     6     7    1
    12     6    30    1
    13     6    31    1
    14     7    24    1
    15     7     8    1
    16     8     9    2
    17     8    32    1
    18     9    10    1
    19    10    11    1
    20    10    24    2
    21    11    12   am
    22    11    33    1
    23    12    13    2
    24    12    14   am
    25    14    15    1
    26    14    34    1
    27    15    16    1
    28    15    35    1
    29    15    36    1
    30    16    17    1
    31    16    18    1
    32    16    19    1
    33    18    37    1
    34    19    20    1
    35    19    38    1
    36    19    39    1
    37    20    21    2
    38    20    22    1
    39    22    23    1
    40    23    40    1
    41    23    41    1
    42    23    42    1
@<TRIPOS>SUBSTRUCTURE
     1 ZINC000599797189        1 TEMP              0 ****  ****    0 ROOT


##########                                Name:    ZINC000428266315
##########                DOCK_Rotatable_Bonds:                  10
##########                         Heavy_Atoms:                  30
##########                    Molecular_Weight:             423.438
##########                DOCK_Rotatable_Bonds:                  10
##########                       Formal_Charge:          0.00999977
##########                     HBond_Acceptors:                  10
##########                        HBond_Donors:                   0
##########                         Heavy_Atoms:                  30
##########                          Grid_Score:          -35.501926
##########                     Grid_vdw_energy:          -34.791798
##########                      Grid_es_energy:           -0.710130
##########           Internal_energy_repulsive:           19.850300

@<TRIPOS>MOLECULE
ZINC000428266315
 54 56 1 0 0
SMALL
USER_CHARGES


@<TRIPOS>ATOM
      1 C1        -17.2890   -6.3932   51.3004 C.3     1  ZINC000428266315   -0.1500
      2 C2        -18.0859   -5.0979   51.1323 C.3     1  ZINC000428266315    0.0600
      3 O3        -17.2949   -4.1405   50.4252 O.3     1  ZINC000428266315   -0.3700
      4 C4        -16.8984   -4.5649   49.1195 C.3     1  ZINC000428266315    0.1800
      5 H5        -16.3060   -5.4765   49.1981 H       1  ZINC000428266315    0.0900
      6 C6        -18.1428   -4.8368   48.2719 C.3     1  ZINC000428266315   -0.1700
      7 C7        -16.0737   -3.4844   48.4689 C.2     1  ZINC000428266315    0.1700
      8 N8        -15.1263   -3.6598   47.5971 N.2     1  ZINC000428266315   -0.3500
      9 O9        -14.6572   -2.5914   47.2660 O.3     1  ZINC000428266315    0.0800
     10 C10       -15.2799   -1.6027   47.9148 C.2     1  ZINC000428266315    0.1900
     11 C11       -14.9972   -0.1280   47.7875 C.3     1  ZINC000428266315    0.1500
     12 N12       -14.0010    0.2682   48.7919 N.3     1  ZINC000428266315   -0.5300
     13 C13       -13.2078    1.4126   48.3237 C.3     1  ZINC000428266315    0.0200
     14 C14       -14.6414    0.5634   50.0805 C.3     1  ZINC000428266315    0.1400
     15 C15       -13.5842    0.8906   51.1035 C.2     1  ZINC000428266315   -0.2300
     16 C16       -12.7667    0.0027   51.7153 C.2     1  ZINC000428266315    0.0800
     17 N17       -11.9682    0.6914   52.5575 N.pl3   1  ZINC000428266315   -0.3700
     18 C18       -10.9307    0.1217   53.4208 C.3     1  ZINC000428266315    0.1700
     19 C19        -9.5718    0.4800   52.8768 C.ar    1  ZINC000428266315   -0.0800
     20 C20        -9.1973    1.8063   52.7710 C.ar    1  ZINC000428266315   -0.1000
     21 C21        -7.9509    2.1350   52.2718 C.ar    1  ZINC000428266315   -0.0700
     22 C22        -7.0786    1.1372   51.8790 C.ar    1  ZINC000428266315   -0.1700
     23 C23        -5.7199    1.4954   51.3344 C.3     1  ZINC000428266315    0.5100
     24 F24        -4.8633    0.3962   51.4581 F       1  ZINC000428266315   -0.1700
     25 F25        -5.8360    1.8466   49.9852 F       1  ZINC000428266315   -0.1800
     26 F26        -5.1990    2.5759   52.0544 F       1  ZINC000428266315   -0.1800
     27 C27        -7.4526   -0.1894   51.9860 C.ar    1  ZINC000428266315   -0.0700
     28 C28        -8.6976   -0.5181   52.4888 C.ar    1  ZINC000428266315   -0.0800
     29 N29       -12.3062    2.0474   52.4600 N.2     1  ZINC000428266315   -0.2900
     30 C30       -13.2706    2.1662   51.5839 C.2     1  ZINC000428266315    0.0600
     31 N31       -16.1870   -2.1608   48.6797 N.2     1  ZINC000428266315   -0.4600
     32 H32       -17.8923   -7.1234   51.8398 H       1  ZINC000428266315    0.0700
     33 H33       -17.0295   -6.7901   50.3190 H       1  ZINC000428266315    0.0600
     34 H34       -16.3776   -6.1888   51.8622 H       1  ZINC000428266315    0.0600
     35 H35       -18.9973   -5.3023   50.5704 H       1  ZINC000428266315    0.0500
     36 H36       -18.3453   -4.7010   52.1137 H       1  ZINC000428266315    0.0500
     37 H37       -18.7352   -3.9253   48.1934 H       1  ZINC000428266315    0.0700
     38 H38       -17.8404   -5.1605   47.2760 H       1  ZINC000428266315    0.0700
     39 H39       -18.7393   -5.6185   48.7425 H       1  ZINC000428266315    0.0700
     40 H40       -14.6115    0.0834   46.7902 H       1  ZINC000428266315    0.0800
     41 H41       -15.9176    0.4335   47.9476 H       1  ZINC000428266315    0.1200
     42 H42       -13.8681    2.2588   48.1335 H       1  ZINC000428266315    0.0400
     43 H43       -12.4783    1.6852   49.0862 H       1  ZINC000428266315    0.0800
     44 H44       -12.6887    1.1429   47.4040 H       1  ZINC000428266315    0.0600
     45 H45       -15.3122    1.4150   49.9662 H       1  ZINC000428266315    0.0500
     46 H46       -15.2104   -0.3055   50.4111 H       1  ZINC000428266315    0.0900
     47 H47       -12.7553   -1.0657   51.5579 H       1  ZINC000428266315    0.1700
     48 H48       -11.0360    0.5231   54.4287 H       1  ZINC000428266315    0.1000
     49 H49       -11.0365   -0.9628   53.4487 H       1  ZINC000428266315    0.1100
     50 H50        -9.8789    2.5860   53.0779 H       1  ZINC000428266315    0.1300
     51 H51        -7.6585    3.1714   52.1886 H       1  ZINC000428266315    0.1400
     52 H52        -6.7710   -0.9690   51.6794 H       1  ZINC000428266315    0.1400
     53 H53        -8.9898   -1.5545   52.5724 H       1  ZINC000428266315    0.1400
     54 H54       -13.7476    3.0890   51.2884 H       1  ZINC000428266315    0.1800
@<TRIPOS>BOND
     1     1     2    1
     2     1    32    1
     3     1    33    1
     4     1    34    1
     5     2     3    1
     6     2    35    1
     7     2    36    1
     8     3     4    1
     9     4     5    1
    10     4     6    1
    11     4     7    1
    12     6    37    1
    13     6    38    1
    14     6    39    1
    15     7    31    1
    16     7     8    2
    17     8     9    1
    18     9    10    1
    19    10    11    1
    20    10    31    2
    21    11    12    1
    22    11    40    1
    23    11    41    1
    24    12    13    1
    25    12    14    1
    26    13    42    1
    27    13    43    1
    28    13    44    1
    29    14    15    1
    30    14    45    1
    31    14    46    1
    32    15    30    1
    33    15    16    2
    34    16    17    1
    35    16    47    1
    36    17    18    1
    37    17    29    1
    38    18    19    1
    39    18    48    1
    40    18    49    1
    41    19    28   ar
    42    19    20   ar
    43    20    21   ar
    44    20    50    1
    45    21    22   ar
    46    21    51    1
    47    22    23    1
    48    22    27   ar
    49    23    24    1
    50    23    25    1
    51    23    26    1
    52    27    28   ar
    53    27    52    1
    54    28    53    1
    55    29    30    2
    56    30    54    1
@<TRIPOS>SUBSTRUCTURE
     1 ZINC000428266315        1 TEMP              0 ****  ****    0 ROOT


##########                                Name:    ZINC000506566356
##########                DOCK_Rotatable_Bonds:                  10
##########                         Heavy_Atoms:                  28
##########                    Molecular_Weight:               415.9
##########                DOCK_Rotatable_Bonds:                  10
##########                       Formal_Charge:           0.0199998
##########                     HBond_Acceptors:                   8
##########                        HBond_Donors:                   2
##########                         Heavy_Atoms:                  28
##########                          Grid_Score:          -35.368607
##########                     Grid_vdw_energy:          -32.483337
##########                      Grid_es_energy:           -2.885269
##########           Internal_energy_repulsive:           10.404524

@<TRIPOS>MOLECULE
ZINC000506566356
 46 48 1 0 0
SMALL
USER_CHARGES


@<TRIPOS>ATOM
      1 O1         -6.5932    1.3709   50.4549 O.2     1  ZINC000506566356   -0.5100
      2 C2         -5.6394    1.2877   51.2008 C.2     1  ZINC000506566356    0.5100
      3 N3         -5.7725    0.6879   52.4004 N.am    1  ZINC000506566356   -0.7000
      4 C4         -7.0697    0.1418   52.8064 C.3     1  ZINC000506566356    0.1200
      5 C5         -7.9041    1.2436   53.4628 C.3     1  ZINC000506566356   -0.0900
      6 C6         -9.2303    0.6766   53.8996 C.ar    1  ZINC000506566356   -0.0700
      7 C7         -9.8056   -0.3608   53.1902 C.ar    1  ZINC000506566356   -0.1100
      8 C8        -11.0221   -0.8818   53.5906 C.ar    1  ZINC000506566356   -0.1000
      9 C9        -11.6638   -0.3653   54.7002 C.ar    1  ZINC000506566356   -0.1100
     10 C10       -11.0884    0.6733   55.4107 C.ar    1  ZINC000506566356   -0.0300
     11 Cl11      -11.8936    1.3224   56.8050 Cl      1  ZINC000506566356   -0.0700
     12 C12        -9.8685    1.1903   55.0131 C.ar    1  ZINC000506566356   -0.1000
     13 C13        -4.3170    1.8445   50.7869 C.2     1  ZINC000506566356    0.5100
     14 O14        -4.2187    2.4683   49.7502 O.2     1  ZINC000506566356   -0.5000
     15 N15        -3.2326    1.6545   51.5645 N.am    1  ZINC000506566356   -0.6300
     16 C16        -1.9939    2.1760   51.1768 C.ar    1  ZINC000506566356    0.1100
     17 C17        -1.2863    1.5889   50.1376 C.ar    1  ZINC000506566356   -0.0800
     18 C18        -0.0626    2.1062   49.7566 C.ar    1  ZINC000506566356   -0.1400
     19 C19         0.4594    3.2080   50.4085 C.ar    1  ZINC000506566356   -0.0900
     20 C20        -0.2394    3.7984   51.4454 C.ar    1  ZINC000506566356   -0.1900
     21 C21        -1.4694    3.2905   51.8298 C.ar    1  ZINC000506566356    0.1200
     22 O22        -2.1577    3.8698   52.8491 O.3     1  ZINC000506566356   -0.3100
     23 C23        -1.7607    3.5257   54.1780 C.3     1  ZINC000506566356    0.1400
     24 C24        -2.7202    4.1406   55.1641 C.2     1  ZINC000506566356    0.0500
     25 C25        -4.0087    4.3545   54.8817 C.2     1  ZINC000506566356   -0.2300
     26 S26        -4.7610    5.0821   56.2992 S.3     1  ZINC000506566356    0.1400
     27 C27        -3.2680    5.0262   57.1306 C.2     1  ZINC000506566356    0.0200
     28 N28        -2.3586    4.5063   56.3774 N.2     1  ZINC000506566356   -0.4700
     29 H29        -5.0092    0.6180   52.9950 H       1  ZINC000506566356    0.4200
     30 H30        -7.5946   -0.2380   51.9299 H       1  ZINC000506566356    0.0800
     31 H31        -6.9158   -0.6698   53.5176 H       1  ZINC000506566356    0.0800
     32 H32        -7.3723    1.6338   54.3306 H       1  ZINC000506566356    0.0900
     33 H33        -8.0710    2.0482   52.7468 H       1  ZINC000506566356    0.0900
     34 H34        -9.3048   -0.7644   52.3226 H       1  ZINC000506566356    0.1300
     35 H35       -11.4711   -1.6924   53.0359 H       1  ZINC000506566356    0.1300
     36 H36       -12.6144   -0.7718   55.0124 H       1  ZINC000506566356    0.1300
     37 H37        -9.4189    2.0009   55.5673 H       1  ZINC000506566356    0.1300
     38 H38        -3.3112    1.1561   52.3930 H       1  ZINC000506566356    0.4300
     39 H39        -1.6915    0.7280   49.6268 H       1  ZINC000506566356    0.1500
     40 H40         0.4875    1.6482   48.9479 H       1  ZINC000506566356    0.1300
     41 H41         1.4161    3.6086   50.1072 H       1  ZINC000506566356    0.1300
     42 H42         0.1718    4.6586   51.9529 H       1  ZINC000506566356    0.1400
     43 H43        -1.7692    2.4415   54.2905 H       1  ZINC000506566356    0.0900
     44 H44        -0.7554    3.9027   54.3660 H       1  ZINC000506566356    0.0900
     45 H45        -4.5019    4.1225   53.9493 H       1  ZINC000506566356    0.1800
     46 H46        -3.1102    5.3719   58.1416 H       1  ZINC000506566356    0.2100
@<TRIPOS>BOND
     1     1     2    2
     2     2     3   am
     3     2    13    1
     4     3     4    1
     5     3    29    1
     6     4     5    1
     7     4    30    1
     8     4    31    1
     9     5     6    1
    10     5    32    1
    11     5    33    1
    12     6    12   ar
    13     6     7   ar
    14     7     8   ar
    15     7    34    1
    16     8     9   ar
    17     8    35    1
    18     9    10   ar
    19     9    36    1
    20    10    11    1
    21    10    12   ar
    22    12    37    1
    23    13    14    2
    24    13    15   am
    25    15    16    1
    26    15    38    1
    27    16    21   ar
    28    16    17   ar
    29    17    18   ar
    30    17    39    1
    31    18    19   ar
    32    18    40    1
    33    19    20   ar
    34    19    41    1
    35    20    21   ar
    36    20    42    1
    37    21    22    1
    38    22    23    1
    39    23    24    1
    40    23    43    1
    41    23    44    1
    42    24    28    1
    43    24    25    2
    44    25    26    1
    45    25    45    1
    46    26    27    1
    47    27    28    2
    48    27    46    1
@<TRIPOS>SUBSTRUCTURE
     1 ZINC000506566356        1 TEMP              0 ****  ****    0 ROOT


##########                                Name:    ZINC001109848453
##########                DOCK_Rotatable_Bonds:                   8
##########                         Heavy_Atoms:                  24
##########                    Molecular_Weight:             328.337
##########                DOCK_Rotatable_Bonds:                   8
##########                       Formal_Charge:          0.00999966
##########                     HBond_Acceptors:                  11
##########                        HBond_Donors:                   2
##########                         Heavy_Atoms:                  24
##########                          Grid_Score:          -35.333187
##########                     Grid_vdw_energy:          -32.368141
##########                      Grid_es_energy:           -2.965046
##########           Internal_energy_repulsive:            5.067780

@<TRIPOS>MOLECULE
ZINC001109848453
 40 43 1 0 0
SMALL
USER_CHARGES


@<TRIPOS>ATOM
      1 O1         -7.1188    4.7135   51.3981 O.2     1  ZINC001109848453   -0.5000
      2 C2         -7.4776    4.0083   50.4789 C.2     1  ZINC001109848453    0.5000
      3 C3         -8.4780    4.5261   49.4779 C.3     1  ZINC001109848453    0.1100
      4 N4         -9.8260    4.1135   49.8764 N.pl3   1  ZINC001109848453   -0.3700
      5 C5        -10.8812    3.9183   49.0668 C.2     1  ZINC001109848453    0.2600
      6 N6        -11.8984    3.5563   49.8057 N.2     1  ZINC001109848453   -0.5400
      7 C7        -11.5329    3.5095   51.0861 C.2     1  ZINC001109848453    0.2000
      8 N8        -10.2710    3.8376   51.1796 N.2     1  ZINC001109848453   -0.2900
      9 N9         -6.9774    2.7635   50.3495 N.am    1  ZINC001109848453   -0.7300
     10 C10        -6.0049    2.2601   51.3227 C.3     1  ZINC001109848453    0.1700
     11 H11        -6.0790    2.8389   52.2433 H       1  ZINC001109848453    0.1000
     12 C12        -4.5930    2.3936   50.7486 C.3     1  ZINC001109848453    0.1200
     13 N13        -3.6277    1.8156   51.6870 N.pl3   1  ZINC001109848453   -0.6800
     14 C14        -2.3174    2.2644   51.6968 C.2     1  ZINC001109848453    0.4900
     15 N15        -1.8481    2.9255   52.7372 N.2     1  ZINC001109848453   -0.5300
     16 C16        -0.5872    3.3645   52.7627 C.2     1  ZINC001109848453    0.1400
     17 C17         0.2536    3.1509   51.7296 C.2     1  ZINC001109848453   -0.0500
     18 N18        -0.1801    2.4711   50.6255 N.pl3   1  ZINC001109848453   -0.1800
     19 N19         0.3673    2.1215   49.5158 N.2     1  ZINC001109848453   -0.1000
     20 N20        -0.4930    1.4846   48.7995 N.2     1  ZINC001109848453   -0.0400
     21 N21        -1.6178    1.4060   49.4267 N.2     1  ZINC001109848453   -0.2600
     22 C22        -1.4683    2.0128   50.5934 C.2     1  ZINC001109848453    0.1000
     23 C23        -6.2969    0.7881   51.6209 C.3     1  ZINC001109848453   -0.1800
     24 C24        -6.3232    0.3563   53.0885 C.3     1  ZINC001109848453   -0.1700
     25 C25        -7.6286    0.4549   52.2966 C.3     1  ZINC001109848453   -0.1700
     26 H26        -8.4267    5.6144   49.4426 H       1  ZINC001109848453    0.1300
     27 H27        -8.2500    4.1195   48.4926 H       1  ZINC001109848453    0.1200
     28 H28       -10.8884    4.0397   47.9936 H       1  ZINC001109848453    0.2200
     29 H29       -12.1741    3.2400   51.9124 H       1  ZINC001109848453    0.2200
     30 H30        -7.2614    2.2009   49.6121 H       1  ZINC001109848453    0.4000
     31 H31        -4.5360    1.8649   49.7971 H       1  ZINC001109848453    0.1000
     32 H32        -4.3622    3.4475   50.5930 H       1  ZINC001109848453    0.0900
     33 H33        -3.9062    1.1186   52.3014 H       1  ZINC001109848453    0.4200
     34 H34        -0.2327    3.9029   53.6294 H       1  ZINC001109848453    0.2000
     35 H35         1.2687    3.5168   51.7744 H       1  ZINC001109848453    0.1900
     36 H36        -5.9097    0.0751   50.8930 H       1  ZINC001109848453    0.1100
     37 H37        -5.9530   -0.6408   53.3265 H       1  ZINC001109848453    0.1000
     38 H38        -6.1324    1.1209   53.8415 H       1  ZINC001109848453    0.1000
     39 H39        -8.2967    1.2844   52.5286 H       1  ZINC001109848453    0.1200
     40 H40        -8.1173   -0.4774   52.0136 H       1  ZINC001109848453    0.0900
@<TRIPOS>BOND
     1     1     2    2
     2     2     3    1
     3     2     9   am
     4     3     4    1
     5     3    26    1
     6     3    27    1
     7     4     8    1
     8     4     5    1
     9     5     6    2
    10     5    28    1
    11     6     7    1
    12     7     8    2
    13     7    29    1
    14     9    10    1
    15     9    30    1
    16    10    11    1
    17    10    12    1
    18    10    23    1
    19    12    13    1
    20    12    31    1
    21    12    32    1
    22    13    14    1
    23    13    33    1
    24    14    22    1
    25    14    15    2
    26    15    16    1
    27    16    17    2
    28    16    34    1
    29    17    18    1
    30    17    35    1
    31    18    22    1
    32    18    19    1
    33    19    20    2
    34    20    21    1
    35    21    22    2
    36    23    25    1
    37    23    24    1
    38    23    36    1
    39    24    25    1
    40    24    37    1
    41    24    38    1
    42    25    39    1
    43    25    40    1
@<TRIPOS>SUBSTRUCTURE
     1 ZINC001109848453        1 TEMP              0 ****  ****    0 ROOT


##########                                Name:    ZINC001083519372
##########                DOCK_Rotatable_Bonds:                   7
##########                         Heavy_Atoms:                  27
##########                    Molecular_Weight:             370.411
##########                DOCK_Rotatable_Bonds:                   7
##########                       Formal_Charge:           0.0399996
##########                     HBond_Acceptors:                   9
##########                        HBond_Donors:                   2
##########                         Heavy_Atoms:                  27
##########                          Grid_Score:          -35.211807
##########                     Grid_vdw_energy:          -33.461998
##########                      Grid_es_energy:           -1.749810
##########           Internal_energy_repulsive:            8.197300

@<TRIPOS>MOLECULE
ZINC001083519372
 49 52 1 0 0
SMALL
USER_CHARGES


@<TRIPOS>ATOM
      1 C1        -12.9433   -0.1923   56.6003 C.3     1  ZINC001083519372   -0.1500
      2 C2        -11.5967   -0.3010   55.8824 C.3     1  ZINC001083519372   -0.0100
      3 C3        -10.9569   -1.6541   56.2005 C.3     1  ZINC001083519372   -0.1500
      4 C4        -11.8093   -0.1832   54.3951 C.2     1  ZINC001083519372   -0.0100
      5 C5        -11.0146    0.4601   53.5239 C.2     1  ZINC001083519372   -0.0100
      6 C6         -9.7435    1.1980   53.8571 C.3     1  ZINC001083519372    0.1300
      7 N7         -8.8591    1.2042   52.6842 N.3     1  ZINC001083519372   -0.5000
      8 C8         -7.7159    2.1311   52.8845 C.3     1  ZINC001083519372    0.0300
      9 C9         -6.6695    1.6303   51.8575 C.3     1  ZINC001083519372    0.1500
     10 H10        -6.8930    2.0123   50.8614 H       1  ZINC001083519372    0.1200
     11 N11        -5.3164    2.0151   52.2667 N.am    1  ZINC001083519372   -0.6900
     12 C12        -4.3489    2.1637   51.3402 C.2     1  ZINC001083519372    0.5600
     13 O13        -4.5993    1.9798   50.1647 O.2     1  ZINC001083519372   -0.5100
     14 C14        -2.9861    2.5494   51.7523 C.2     1  ZINC001083519372    0.1400
     15 C15        -2.7760    3.2151   52.9297 C.2     1  ZINC001083519372   -0.1500
     16 C16        -1.4695    3.5679   53.2933 C.2     1  ZINC001083519372    0.1800
     17 N17        -0.4580    3.2646   52.5158 N.2     1  ZINC001083519372   -0.4400
     18 C18        -0.6424    2.6147   51.3619 C.2     1  ZINC001083519372    0.2500
     19 C19         0.2369    2.1826   50.3749 C.2     1  ZINC001083519372   -0.2500
     20 C20        -0.5105    1.5584   49.3900 C.2     1  ZINC001083519372    0.1000
     21 N21        -1.7808    1.5921   49.7294 N.2     1  ZINC001083519372   -0.3100
     22 N22        -1.9018    2.2416   50.9626 N.pl3   1  ZINC001083519372   -0.3100
     23 C23        -6.8442    0.0950   51.9066 C.3     1  ZINC001083519372    0.0900
     24 H24        -6.7592   -0.3276   50.9054 H       1  ZINC001083519372    0.0800
     25 O25        -5.8696   -0.4876   52.7743 O.3     1  ZINC001083519372   -0.5600
     26 C26        -8.2619   -0.1308   52.4635 C.3     1  ZINC001083519372    0.0100
     27 N27       -11.5577    0.3269   52.3009 N.2     1  ZINC001083519372   -0.4800
     28 C28       -12.6511   -0.3735   52.4034 C.2     1  ZINC001083519372    0.1700
     29 O29       -12.8293   -0.7084   53.6883 O.3     1  ZINC001083519372   -0.2000
     30 H30       -13.3991    0.7715   56.3737 H       1  ZINC001083519372    0.0600
     31 H31       -13.6008   -0.9935   56.2627 H       1  ZINC001083519372    0.0600
     32 H32       -12.7895   -0.2775   57.6760 H       1  ZINC001083519372    0.0700
     33 H33       -10.9392    0.5000   56.2199 H       1  ZINC001083519372    0.1000
     34 H34       -11.6144   -2.4552   55.8629 H       1  ZINC001083519372    0.0600
     35 H35        -9.9975   -1.7315   55.6890 H       1  ZINC001083519372    0.0600
     36 H36       -10.8031   -1.7393   57.2762 H       1  ZINC001083519372    0.0700
     37 H37        -9.9818    2.2238   54.1380 H       1  ZINC001083519372    0.0900
     38 H38        -9.2421    0.7010   54.6876 H       1  ZINC001083519372    0.0600
     39 H39        -8.0099    3.1575   52.6648 H       1  ZINC001083519372    0.1000
     40 H40        -7.3281    2.0498   53.8998 H       1  ZINC001083519372    0.0600
     41 H41        -5.1168    2.1630   53.2044 H       1  ZINC001083519372    0.4300
     42 H42        -3.6079    3.4660   53.5710 H       1  ZINC001083519372    0.1800
     43 H43        -1.2943    4.0937   54.2204 H       1  ZINC001083519372    0.1900
     44 H44         1.3093    2.3109   50.3761 H       1  ZINC001083519372    0.1700
     45 H45        -0.1140    1.1155   48.4884 H       1  ZINC001083519372    0.2000
     46 H46        -5.8004   -0.0535   53.6356 H       1  ZINC001083519372    0.3900
     47 H47        -8.2081   -0.6741   53.4070 H       1  ZINC001083519372    0.0700
     48 H48        -8.8590   -0.6903   51.7434 H       1  ZINC001083519372    0.0900
     49 H49       -13.3041   -0.6432   51.5867 H       1  ZINC001083519372    0.2500
@<TRIPOS>BOND
     1     1     2    1
     2     1    30    1
     3     1    31    1
     4     1    32    1
     5     2     3    1
     6     2     4    1
     7     2    33    1
     8     3    34    1
     9     3    35    1
    10     3    36    1
    11     4    29    1
    12     4     5    2
    13     5     6    1
    14     5    27    1
    15     6     7    1
    16     6    37    1
    17     6    38    1
    18     7    26    1
    19     7     8    1
    20     8     9    1
    21     8    39    1
    22     8    40    1
    23     9    10    1
    24     9    11    1
    25     9    23    1
    26    11    12   am
    27    11    41    1
    28    12    13    2
    29    12    14    1
    30    14    22    1
    31    14    15    2
    32    15    16    1
    33    15    42    1
    34    16    17    2
    35    16    43    1
    36    17    18    1
    37    18    22    1
    38    18    19    2
    39    19    20    1
    40    19    44    1
    41    20    21    2
    42    20    45    1
    43    21    22    1
    44    23    24    1
    45    23    25    1
    46    23    26    1
    47    25    46    1
    48    26    47    1
    49    26    48    1
    50    27    28    2
    51    28    29    1
    52    28    49    1
@<TRIPOS>SUBSTRUCTURE
     1 ZINC001083519372        1 TEMP              0 ****  ****    0 ROOT


##########                                Name:    ZINC000465642058
##########                DOCK_Rotatable_Bonds:                  10
##########                         Heavy_Atoms:                  31
##########                    Molecular_Weight:             420.511
##########                DOCK_Rotatable_Bonds:                  10
##########                       Formal_Charge:          1.2666e-07
##########                     HBond_Acceptors:                   7
##########                        HBond_Donors:                   2
##########                         Heavy_Atoms:                  31
##########                          Grid_Score:          -35.202240
##########                     Grid_vdw_energy:          -33.741444
##########                      Grid_es_energy:           -1.460796
##########           Internal_energy_repulsive:           14.850645

@<TRIPOS>MOLECULE
ZINC000465642058
 59 62 1 0 0
SMALL
USER_CHARGES


@<TRIPOS>ATOM
      1 C1        -13.3588    2.1377   52.4004 C.3     1  ZINC000465642058   -0.1500
      2 C2        -11.8788    2.2545   52.0301 C.3     1  ZINC000465642058    0.0500
      3 O3        -11.0763    1.8945   53.1563 O.3     1  ZINC000465642058   -0.3000
      4 C4         -9.7636    1.6299   52.9195 C.ar    1  ZINC000465642058    0.1200
      5 C5         -8.9594    2.5818   52.3087 C.ar    1  ZINC000465642058   -0.1600
      6 C6         -7.6300    2.3092   52.0724 C.ar    1  ZINC000465642058   -0.1300
      7 C7         -7.0762    1.0912   52.4438 C.ar    1  ZINC000465642058    0.0700
      8 C8         -7.8893    0.1381   53.0522 C.ar    1  ZINC000465642058   -0.0700
      9 C9         -9.2199    0.4095   53.2925 C.ar    1  ZINC000465642058   -0.1100
     10 C10       -10.0901   -0.6292   53.9520 C.3     1  ZINC000465642058    0.1900
     11 N11       -10.2404   -0.3092   55.3737 N.am    1  ZINC000465642058   -0.7300
     12 C12       -10.5456   -1.2822   56.2548 C.2     1  ZINC000465642058    0.7100
     13 O13       -10.6975   -2.4255   55.8696 O.2     1  ZINC000465642058   -0.5900
     14 N14       -10.6822   -0.9882   57.5630 N.am    1  ZINC000465642058   -0.6200
     15 C15       -10.4972    0.3889   58.0274 C.3     1  ZINC000465642058    0.1900
     16 C16        -9.1414    0.5240   58.6713 C.2     1  ZINC000465642058    0.0500
     17 N17        -8.5549   -0.3743   59.4203 N.2     1  ZINC000465642058   -0.2700
     18 N18        -7.3123    0.1336   59.8209 N.pl3   1  ZINC000465642058   -0.4700
     19 C19        -7.1752    1.3652   59.2867 C.2     1  ZINC000465642058    0.0600
     20 C20        -8.2900    1.6288   58.5664 C.2     1  ZINC000465642058   -0.2600
     21 C21       -11.0156   -2.0456   58.5206 C.3     1  ZINC000465642058    0.1700
     22 C22       -12.5086   -2.0898   58.7204 C.ar    1  ZINC000465642058   -0.1100
     23 C23       -13.3466   -2.2588   57.6341 C.ar    1  ZINC000465642058   -0.0900
     24 C24       -14.7162   -2.2993   57.8175 C.ar    1  ZINC000465642058   -0.1200
     25 C25       -15.2477   -2.1711   59.0871 C.ar    1  ZINC000465642058   -0.1200
     26 C26       -14.4096   -2.0030   60.1735 C.ar    1  ZINC000465642058   -0.1300
     27 C27       -13.0399   -1.9668   59.9907 C.ar    1  ZINC000465642058   -0.1100
     28 O28        -5.7492    1.0400   52.1397 O.3     1  ZINC000465642058   -0.3000
     29 C29        -5.4509    2.0426   51.1534 C.3     1  ZINC000465642058    0.0800
     30 H30        -5.5582    1.6383   50.1469 H       1  ZINC000465642058    0.0900
     31 C31        -4.0437    2.6061   51.3618 C.3     1  ZINC000465642058   -0.1500
     32 C32        -6.5242    3.1224   51.4276 C.3     1  ZINC000465642058   -0.1100
     33 H33       -13.5791    2.8067   53.2323 H       1  ZINC000465642058    0.0700
     34 H34       -13.9710    2.4123   51.5414 H       1  ZINC000465642058    0.0800
     35 H35       -13.5806    1.1109   52.6913 H       1  ZINC000465642058    0.0700
     36 H36       -11.6585    1.5855   51.1983 H       1  ZINC000465642058    0.0600
     37 H37       -11.6570    3.2813   51.7392 H       1  ZINC000465642058    0.0600
     38 H38        -9.3754    3.5353   52.0186 H       1  ZINC000465642058    0.1300
     39 H39        -7.4748   -0.8165   53.3410 H       1  ZINC000465642058    0.1400
     40 H40       -11.0705   -0.6373   53.4757 H       1  ZINC000465642058    0.0700
     41 H41        -9.6272   -1.6105   53.8473 H       1  ZINC000465642058    0.0800
     42 H42       -10.1202    0.6030   55.6808 H       1  ZINC000465642058    0.4000
     43 H43       -10.5663    1.0706   57.1797 H       1  ZINC000465642058    0.1000
     44 H44       -11.2710    0.6341   58.7549 H       1  ZINC000465642058    0.0900
     45 H45        -6.6649   -0.3199   60.3831 H       1  ZINC000465642058    0.4400
     46 H46        -6.3259    2.0212   59.4086 H       1  ZINC000465642058    0.1800
     47 H47        -8.4899    2.5348   58.0136 H       1  ZINC000465642058    0.1500
     48 H48       -10.6719   -3.0058   58.1359 H       1  ZINC000465642058    0.0900
     49 H49       -10.5274   -1.8401   59.4733 H       1  ZINC000465642058    0.0900
     50 H50       -12.9314   -2.3589   56.6422 H       1  ZINC000465642058    0.1300
     51 H51       -15.3710   -2.4306   56.9687 H       1  ZINC000465642058    0.1200
     52 H52       -16.3177   -2.2021   59.2302 H       1  ZINC000465642058    0.1200
     53 H53       -14.8249   -1.9026   61.1654 H       1  ZINC000465642058    0.1200
     54 H54       -12.3852   -1.8355   60.8394 H       1  ZINC000465642058    0.1200
     55 H55        -3.3119    1.8059   51.2516 H       1  ZINC000465642058    0.0700
     56 H56        -3.8493    3.3812   50.6204 H       1  ZINC000465642058    0.0800
     57 H57        -3.9677    3.0328   52.3620 H       1  ZINC000465642058    0.0700
     58 H58        -6.8663    3.5766   50.4977 H       1  ZINC000465642058    0.0900
     59 H59        -6.1474    3.8806   52.1141 H       1  ZINC000465642058    0.1000
@<TRIPOS>BOND
     1     1     2    1
     2     1    33    1
     3     1    34    1
     4     1    35    1
     5     2     3    1
     6     2    36    1
     7     2    37    1
     8     3     4    1
     9     4     9   ar
    10     4     5   ar
    11     5     6   ar
    12     5    38    1
    13     6    32    1
    14     6     7   ar
    15     7     8   ar
    16     7    28    1
    17     8     9   ar
    18     8    39    1
    19     9    10    1
    20    10    11    1
    21    10    40    1
    22    10    41    1
    23    11    12   am
    24    11    42    1
    25    12    13    2
    26    12    14   am
    27    14    15    1
    28    14    21    1
    29    15    16    1
    30    15    43    1
    31    15    44    1
    32    16    20    1
    33    16    17    2
    34    17    18    1
    35    18    19    1
    36    18    45    1
    37    19    20    2
    38    19    46    1
    39    20    47    1
    40    21    22    1
    41    21    48    1
    42    21    49    1
    43    22    27   ar
    44    22    23   ar
    45    23    24   ar
    46    23    50    1
    47    24    25   ar
    48    24    51    1
    49    25    26   ar
    50    25    52    1
    51    26    27   ar
    52    26    53    1
    53    27    54    1
    54    28    29    1
    55    29    30    1
    56    29    31    1
    57    29    32    1
    58    31    55    1
    59    31    56    1
    60    31    57    1
    61    32    58    1
    62    32    59    1
@<TRIPOS>SUBSTRUCTURE
     1 ZINC000465642058        1 TEMP              0 ****  ****    0 ROOT


##########                                Name:    ZINC000523153175
##########                DOCK_Rotatable_Bonds:                   9
##########                         Heavy_Atoms:                  30
##########                    Molecular_Weight:             413.603
##########                DOCK_Rotatable_Bonds:                   9
##########                       Formal_Charge:           0.0499987
##########                     HBond_Acceptors:                   5
##########                        HBond_Donors:                   1
##########                         Heavy_Atoms:                  30
##########                          Grid_Score:          -35.144691
##########                     Grid_vdw_energy:          -35.705173
##########                      Grid_es_energy:            0.560480
##########           Internal_energy_repulsive:           44.703491

@<TRIPOS>MOLECULE
ZINC000523153175
 69 71 1 0 0
SMALL
USER_CHARGES


@<TRIPOS>ATOM
      1 C1        -10.5630   -0.9476   59.6976 C.3     1  ZINC000523153175   -0.1500
      2 C2        -11.1733   -1.8626   58.6340 C.3     1  ZINC000523153175   -0.0600
      3 C3        -12.6650   -2.0501   58.9176 C.3     1  ZINC000523153175   -0.1400
      4 C4        -10.9951   -1.2396   57.2734 C.ar    1  ZINC000523153175   -0.0800
      5 C5        -11.0108    0.1357   57.1355 C.ar    1  ZINC000523153175   -0.1100
      6 C6        -10.8473    0.7072   55.8874 C.ar    1  ZINC000523153175   -0.1100
      7 C7        -10.6677   -0.0968   54.7773 C.ar    1  ZINC000523153175   -0.0800
      8 C8        -10.4899    0.5262   53.4166 C.3     1  ZINC000523153175   -0.0300
      9 H9        -10.4150   -0.2591   52.6645 H       1  ZINC000523153175    0.0800
     10 C10       -11.6922    1.4191   53.1036 C.3     1  ZINC000523153175   -0.1500
     11 C11        -9.2124    1.3680   53.4041 C.3     1  ZINC000523153175   -0.1300
     12 C12        -8.0971    0.5788   52.7684 C.2     1  ZINC000523153175    0.5200
     13 O13        -8.3413   -0.4597   52.1916 O.2     1  ZINC000523153175   -0.5300
     14 N14        -6.8281    1.0271   52.8408 N.am    1  ZINC000523153175   -0.6200
     15 C15        -5.7258    0.2764   52.2204 C.3     1  ZINC000523153175    0.1100
     16 C16        -4.9188    1.2357   51.3393 C.3     1  ZINC000523153175    0.0400
     17 N17        -4.5070    2.3987   52.1365 N.3     1  ZINC000523153175   -0.5100
     18 C18        -3.5880    3.2581   51.3782 C.3     1  ZINC000523153175    0.0600
     19 H19        -3.7356    3.0950   50.3106 H       1  ZINC000523153175    0.1100
     20 C20        -3.8674    4.7245   51.7135 C.3     1  ZINC000523153175   -0.1800
     21 C21        -2.1660    2.9207   51.7460 C.2     1  ZINC000523153175    0.5200
     22 O22        -1.8752    2.6982   52.9021 O.2     1  ZINC000523153175   -0.5200
     23 N23        -1.2175    2.8663   50.7900 N.am    1  ZINC000523153175   -0.7200
     24 C24         0.1645    2.5366   51.1473 C.3     1  ZINC000523153175    0.1400
     25 C25         1.0030    2.3196   49.8707 C.3     1  ZINC000523153175   -0.1300
     26 C26         1.6798    3.6906   49.6231 C.3     1  ZINC000523153175   -0.1300
     27 C27         2.0162    4.1695   51.0572 C.3     1  ZINC000523153175   -0.1300
     28 C28         0.8088    3.7129   51.9017 C.3     1  ZINC000523153175   -0.1300
     29 C29        -5.6709    3.1603   52.6089 C.3     1  ZINC000523153175    0.0400
     30 C30        -6.5095    2.2829   53.5368 C.3     1  ZINC000523153175    0.1200
     31 C31       -10.6505   -1.4721   54.9155 C.ar    1  ZINC000523153175   -0.1100
     32 C32       -10.8102   -2.0434   56.1640 C.ar    1  ZINC000523153175   -0.1200
     33 H33       -10.6919   -1.3981   60.6818 H       1  ZINC000523153175    0.0600
     34 H34        -9.5003   -0.8140   59.4956 H       1  ZINC000523153175    0.0600
     35 H35       -11.0621    0.0211   59.6733 H       1  ZINC000523153175    0.0600
     36 H36       -10.6743   -2.8313   58.6583 H       1  ZINC000523153175    0.0800
     37 H37       -13.1641   -1.0813   58.8933 H       1  ZINC000523153175    0.0600
     38 H38       -13.0999   -2.7018   58.1597 H       1  ZINC000523153175    0.0600
     39 H39       -12.7940   -2.5006   59.9017 H       1  ZINC000523153175    0.0600
     40 H40       -11.1512    0.7639   58.0028 H       1  ZINC000523153175    0.1200
     41 H41       -10.8603    1.7818   55.7795 H       1  ZINC000523153175    0.1200
     42 H42       -11.5637    1.8698   52.1194 H       1  ZINC000523153175    0.0800
     43 H43       -12.6024    0.8194   53.1125 H       1  ZINC000523153175    0.0600
     44 H44       -11.7671    2.2044   53.8558 H       1  ZINC000523153175    0.0500
     45 H45        -9.3838    2.2801   52.8324 H       1  ZINC000523153175    0.0900
     46 H46        -8.9375    1.6264   54.4268 H       1  ZINC000523153175    0.0900
     47 H47        -5.0819   -0.1370   52.9968 H       1  ZINC000523153175    0.0800
     48 H48        -6.1306   -0.5299   51.6088 H       1  ZINC000523153175    0.0900
     49 H49        -4.0348    0.7239   50.9590 H       1  ZINC000523153175    0.0900
     50 H50        -5.5350    1.5675   50.5036 H       1  ZINC000523153175    0.0400
     51 H51        -3.7197    4.8876   52.7811 H       1  ZINC000523153175    0.0700
     52 H52        -3.1855    5.3621   51.1508 H       1  ZINC000523153175    0.0700
     53 H53        -4.8959    4.9685   51.4475 H       1  ZINC000523153175    0.0700
     54 H54        -1.4499    3.0455   49.8655 H       1  ZINC000523153175    0.4000
     55 H55         0.1860    1.6395   51.7661 H       1  ZINC000523153175    0.0900
     56 H56         1.7544    1.5472   50.0345 H       1  ZINC000523153175    0.0700
     57 H57         0.3591    2.0550   49.0318 H       1  ZINC000523153175    0.0700
     58 H58         2.5881    3.5719   49.0324 H       1  ZINC000523153175    0.0700
     59 H59         0.9892    4.3802   49.1376 H       1  ZINC000523153175    0.0700
     60 H60         2.9313    3.6960   51.4126 H       1  ZINC000523153175    0.0700
     61 H61         2.1119    5.2550   51.0842 H       1  ZINC000523153175    0.0700
     62 H62         0.0932    4.5290   52.0019 H       1  ZINC000523153175    0.0700
     63 H63         1.1438    3.3864   52.8862 H       1  ZINC000523153175    0.0800
     64 H64        -5.3323    4.0441   53.1494 H       1  ZINC000523153175    0.1000
     65 H65        -6.2767    3.4652   51.7555 H       1  ZINC000523153175    0.0400
     66 H66        -7.4314    2.8026   53.7980 H       1  ZINC000523153175    0.1000
     67 H67        -5.9429    2.0600   54.4410 H       1  ZINC000523153175    0.0800
     68 H68       -10.5098   -2.1002   54.0482 H       1  ZINC000523153175    0.1200
     69 H69       -10.7968   -3.1179   56.2720 H       1  ZINC000523153175    0.1200
@<TRIPOS>BOND
     1     1     2    1
     2     1    33    1
     3     1    34    1
     4     1    35    1
     5     2     3    1
     6     2     4    1
     7     2    36    1
     8     3    37    1
     9     3    38    1
    10     3    39    1
    11     4    32   ar
    12     4     5   ar
    13     5     6   ar
    14     5    40    1
    15     6     7   ar
    16     6    41    1
    17     7     8    1
    18     7    31   ar
    19     8     9    1
    20     8    10    1
    21     8    11    1
    22    10    42    1
    23    10    43    1
    24    10    44    1
    25    11    12    1
    26    11    45    1
    27    11    46    1
    28    12    13    2
    29    12    14   am
    30    14    30    1
    31    14    15    1
    32    15    16    1
    33    15    47    1
    34    15    48    1
    35    16    17    1
    36    16    49    1
    37    16    50    1
    38    17    18    1
    39    17    29    1
    40    18    19    1
    41    18    20    1
    42    18    21    1
    43    20    51    1
    44    20    52    1
    45    20    53    1
    46    21    22    2
    47    21    23   am
    48    23    24    1
    49    23    54    1
    50    24    28    1
    51    24    25    1
    52    24    55    1
    53    25    26    1
    54    25    56    1
    55    25    57    1
    56    26    27    1
    57    26    58    1
    58    26    59    1
    59    27    28    1
    60    27    60    1
    61    27    61    1
    62    28    62    1
    63    28    63    1
    64    29    30    1
    65    29    64    1
    66    29    65    1
    67    30    66    1
    68    30    67    1
    69    31    32   ar
    70    31    68    1
    71    32    69    1
@<TRIPOS>SUBSTRUCTURE
     1 ZINC000523153175        1 TEMP              0 ****  ****    0 ROOT


##########                                Name:    ZINC000011620562
##########                DOCK_Rotatable_Bonds:                   9
##########                         Heavy_Atoms:                  29
##########                    Molecular_Weight:             417.448
##########                DOCK_Rotatable_Bonds:                   9
##########                       Formal_Charge:           0.0299999
##########                     HBond_Acceptors:                  12
##########                        HBond_Donors:                   1
##########                         Heavy_Atoms:                  29
##########                          Grid_Score:          -35.139019
##########                     Grid_vdw_energy:          -35.439548
##########                      Grid_es_energy:            0.300531
##########           Internal_energy_repulsive:           10.198279

@<TRIPOS>MOLECULE
ZINC000011620562
 48 50 1 0 0
SMALL
USER_CHARGES


@<TRIPOS>ATOM
      1 C1        -12.3699   -0.1794   52.2358 C.3     1  ZINC000011620562    0.0400
      2 O2        -11.0024    0.3087   52.2346 O.3     1  ZINC000011620562   -0.3500
      3 C3        -10.4250    0.5069   53.4301 C.2     1  ZINC000011620562    0.4600
      4 O4        -11.0220    0.2284   54.4430 O.2     1  ZINC000011620562   -0.5000
      5 C5         -9.0321    1.0766   53.5090 C.3     1  ZINC000011620562    0.1300
      6 N6         -8.2260    0.5503   52.4047 N.am    1  ZINC000011620562   -0.7200
      7 C7         -6.8806    0.5751   52.4809 C.2     1  ZINC000011620562    0.5400
      8 O8         -6.3373    1.0319   53.4643 O.2     1  ZINC000011620562   -0.5200
      9 C9         -6.0514    0.0354   51.3442 C.3     1  ZINC000011620562   -0.1600
     10 S10        -4.3670    0.6869   51.4638 S.3     1  ZINC000011620562    0.1400
     11 C11        -4.6725    2.3888   51.1249 C.2     1  ZINC000011620562    0.2100
     12 N12        -5.8441    2.9429   50.8966 N.2     1  ZINC000011620562   -0.3400
     13 N13        -5.7122    4.2028   50.6860 N.2     1  ZINC000011620562   -0.0300
     14 N14        -4.4713    4.5432   50.7620 N.2     1  ZINC000011620562   -0.0800
     15 N15        -3.7457    3.3755   51.0560 N.pl3   1  ZINC000011620562   -0.2600
     16 C16        -2.3540    3.2555   51.2337 C.2     1  ZINC000011620562   -0.1300
     17 C17        -1.6235    3.8411   52.2095 C.2     1  ZINC000011620562    0.2500
     18 C18        -2.1603    4.7367   53.2960 C.3     1  ZINC000011620562   -0.1100
     19 N19        -0.3133    3.4815   52.0420 N.pl3   1  ZINC000011620562   -0.3700
     20 C20         0.8069    3.9007   52.8879 C.3     1  ZINC000011620562    0.0900
     21 N21        -0.2281    2.6432   50.9227 N.am    1  ZINC000011620562   -0.3600
     22 C22         0.9381    2.0607   50.4165 C.ar    1  ZINC000011620562    0.1400
     23 C23         1.6803    1.1908   51.2049 C.ar    1  ZINC000011620562   -0.1300
     24 C24         2.8312    0.6167   50.7017 C.ar    1  ZINC000011620562   -0.1000
     25 C25         3.2448    0.9072   49.4145 C.ar    1  ZINC000011620562   -0.1100
     26 C26         2.5083    1.7731   48.6271 C.ar    1  ZINC000011620562   -0.1000
     27 C27         1.3533    2.3460   49.1222 C.ar    1  ZINC000011620562   -0.1000
     28 C28        -1.4720    2.4939   50.4239 C.2     1  ZINC000011620562    0.5500
     29 O29        -1.7815    1.8314   49.4503 O.2     1  ZINC000011620562   -0.5000
     30 H30       -13.0098    0.5336   52.7557 H       1  ZINC000011620562    0.0700
     31 H31       -12.7150   -0.2958   51.2085 H       1  ZINC000011620562    0.1100
     32 H32       -12.4113   -1.1427   52.7444 H       1  ZINC000011620562    0.0700
     33 H33        -9.0795    2.1633   53.4384 H       1  ZINC000011620562    0.1200
     34 H34        -8.5769    0.7936   54.4581 H       1  ZINC000011620562    0.1200
     35 H35        -8.6606    0.1838   51.6188 H       1  ZINC000011620562    0.4200
     36 H36        -6.0248   -1.0530   51.3988 H       1  ZINC000011620562    0.1400
     37 H37        -6.4927    0.3410   50.3955 H       1  ZINC000011620562    0.1400
     38 H38        -3.2384    4.8451   53.1780 H       1  ZINC000011620562    0.1000
     39 H39        -1.9437    4.2969   54.2695 H       1  ZINC000011620562    0.1000
     40 H40        -1.6869    5.7161   53.2264 H       1  ZINC000011620562    0.1000
     41 H41         0.4447    4.5788   53.6606 H       1  ZINC000011620562    0.1100
     42 H42         1.2571    3.0248   53.3550 H       1  ZINC000011620562    0.0900
     43 H43         1.5523    4.4105   52.2774 H       1  ZINC000011620562    0.0900
     44 H44         1.3580    0.9639   52.2104 H       1  ZINC000011620562    0.1300
     45 H45         3.4091   -0.0594   51.3144 H       1  ZINC000011620562    0.1300
     46 H46         4.1452    0.4568   49.0234 H       1  ZINC000011620562    0.1300
     47 H47         2.8345    1.9983   47.6225 H       1  ZINC000011620562    0.1400
     48 H48         0.7784    3.0220   48.5067 H       1  ZINC000011620562    0.1400
@<TRIPOS>BOND
     1     1     2    1
     2     1    30    1
     3     1    31    1
     4     1    32    1
     5     2     3    1
     6     3     4    2
     7     3     5    1
     8     5     6    1
     9     5    33    1
    10     5    34    1
    11     6     7   am
    12     6    35    1
    13     7     8    2
    14     7     9    1
    15     9    10    1
    16     9    36    1
    17     9    37    1
    18    10    11    1
    19    11    15    1
    20    11    12    2
    21    12    13    1
    22    13    14    2
    23    14    15    1
    24    15    16    1
    25    16    28    1
    26    16    17    2
    27    17    18    1
    28    17    19    1
    29    18    38    1
    30    18    39    1
    31    18    40    1
    32    19    20    1
    33    19    21    1
    34    20    41    1
    35    20    42    1
    36    20    43    1
    37    21    22    1
    38    21    28   am
    39    22    27   ar
    40    22    23   ar
    41    23    24   ar
    42    23    44    1
    43    24    25   ar
    44    24    45    1
    45    25    26   ar
    46    25    46    1
    47    26    27   ar
    48    26    47    1
    49    27    48    1
    50    28    29    2
@<TRIPOS>SUBSTRUCTURE
     1 ZINC000011620562        1 TEMP              0 ****  ****    0 ROOT


##########                                Name:    ZINC000045927156
##########                DOCK_Rotatable_Bonds:                   7
##########                         Heavy_Atoms:                  30
##########                    Molecular_Weight:             418.522
##########                DOCK_Rotatable_Bonds:                   7
##########                       Formal_Charge:           0.0200001
##########                     HBond_Acceptors:                   8
##########                        HBond_Donors:                   1
##########                         Heavy_Atoms:                  30
##########                          Grid_Score:          -35.077126
##########                     Grid_vdw_energy:          -33.424423
##########                      Grid_es_energy:           -1.652704
##########           Internal_energy_repulsive:           14.173779

@<TRIPOS>MOLECULE
ZINC000045927156
 52 56 1 0 0
SMALL
USER_CHARGES


@<TRIPOS>ATOM
      1 O1        -12.1963   -0.7087   51.5015 O.2     1  ZINC000045927156   -0.5800
      2 C2        -12.8411   -0.3016   52.4486 C.2     1  ZINC000045927156    0.7300
      3 N3        -14.0563    0.2466   52.2506 N.am    1  ZINC000045927156   -0.7400
      4 C4        -14.5978    0.3574   50.8939 C.3     1  ZINC000045927156    0.1700
      5 C5        -15.4100   -0.8714   50.5753 C.ar    1  ZINC000045927156   -0.0700
      6 C6        -16.2967   -1.3747   51.5083 C.ar    1  ZINC000045927156   -0.1000
      7 C7        -17.0418   -2.5020   51.2162 C.ar    1  ZINC000045927156   -0.1100
      8 C8        -16.9003   -3.1254   49.9908 C.ar    1  ZINC000045927156   -0.1100
      9 C9        -16.0139   -2.6215   49.0570 C.ar    1  ZINC000045927156   -0.1000
     10 C10       -15.2722   -1.4921   49.3475 C.ar    1  ZINC000045927156   -0.1000
     11 C11       -14.3060   -0.9426   48.3297 C.3     1  ZINC000045927156    0.1700
     12 N12       -14.8607    0.2778   47.7390 N.pl3   1  ZINC000045927156   -0.3800
     13 C13       -16.1188    0.4618   47.3022 C.2     1  ZINC000045927156    0.2500
     14 N14       -16.2158    1.6846   46.8472 N.2     1  ZINC000045927156   -0.5400
     15 C15       -15.0458    2.3091   46.9762 C.2     1  ZINC000045927156    0.2000
     16 N16       -14.1857    1.4903   47.5224 N.2     1  ZINC000045927156   -0.3100
     17 N17       -12.3430   -0.4035   53.6967 N.am    1  ZINC000045927156   -0.6200
     18 C18       -13.0167    0.0427   54.9298 C.3     1  ZINC000045927156    0.1000
     19 C19       -12.3880   -0.8134   56.0573 C.3     1  ZINC000045927156   -0.1300
     20 C20       -10.9112   -0.9072   55.5906 C.3     1  ZINC000045927156   -0.1200
     21 C21       -11.0405   -0.9839   54.0548 C.3     1  ZINC000045927156    0.2300
     22 H22       -10.9904   -2.0232   53.7300 H       1  ZINC000045927156    0.1000
     23 C23        -9.9347   -0.1909   53.4071 C.2     1  ZINC000045927156    0.0900
     24 N24        -8.8238   -0.6911   53.0171 N.2     1  ZINC000045927156   -0.4500
     25 C25        -7.9245    0.1375   52.4529 C.ar    1  ZINC000045927156    0.0800
     26 C26        -6.6410   -0.1406   51.9418 C.ar    1  ZINC000045927156   -0.0700
     27 C27        -5.8812    0.8549   51.4061 C.ar    1  ZINC000045927156   -0.1100
     28 C28        -6.3540    2.1583   51.3524 C.ar    1  ZINC000045927156   -0.1000
     29 C29        -7.6043    2.4595   51.8441 C.ar    1  ZINC000045927156   -0.0700
     30 C30        -8.3954    1.4542   52.3957 C.ar    1  ZINC000045927156   -0.1800
     31 S31       -10.0108    1.4852   53.0956 S.3     1  ZINC000045927156    0.1200
     32 H32       -14.5724    0.5678   53.0066 H       1  ZINC000045927156    0.3900
     33 H33       -15.2333    1.2404   50.8272 H       1  ZINC000045927156    0.1000
     34 H34       -13.7776    0.4455   50.1814 H       1  ZINC000045927156    0.0700
     35 H35       -16.4074   -0.8875   52.4659 H       1  ZINC000045927156    0.1300
     36 H36       -17.7342   -2.8957   51.9454 H       1  ZINC000045927156    0.1300
     37 H37       -17.4818   -4.0065   49.7627 H       1  ZINC000045927156    0.1300
     38 H38       -15.9030   -3.1088   48.0997 H       1  ZINC000045927156    0.1300
     39 H39       -13.3580   -0.7125   48.8159 H       1  ZINC000045927156    0.1100
     40 H40       -14.1426   -1.6833   47.5470 H       1  ZINC000045927156    0.1000
     41 H41       -16.9109   -0.2720   47.3227 H       1  ZINC000045927156    0.2200
     42 H42       -14.8424    3.3279   46.6814 H       1  ZINC000045927156    0.2200
     43 H43       -12.8246    1.1012   55.1052 H       1  ZINC000045927156    0.0700
     44 H44       -14.0887   -0.1435   54.8650 H       1  ZINC000045927156    0.0800
     45 H45       -12.4621   -0.3074   57.0198 H       1  ZINC000045927156    0.0900
     46 H46       -12.8475   -1.8009   56.1005 H       1  ZINC000045927156    0.0800
     47 H47       -10.3549   -0.0192   55.8906 H       1  ZINC000045927156    0.0900
     48 H48       -10.4399   -1.8090   55.9811 H       1  ZINC000045927156    0.0900
     49 H49        -6.2571   -1.1496   51.9754 H       1  ZINC000045927156    0.1300
     50 H50        -4.8991    0.6272   51.0188 H       1  ZINC000045927156    0.1400
     51 H51        -5.7404    2.9375   50.9248 H       1  ZINC000045927156    0.1400
     52 H52        -7.9713    3.4743   51.8027 H       1  ZINC000045927156    0.1300
@<TRIPOS>BOND
     1     1     2    2
     2     2     3   am
     3     2    17   am
     4     3     4    1
     5     3    32    1
     6     4     5    1
     7     4    33    1
     8     4    34    1
     9     5    10   ar
    10     5     6   ar
    11     6     7   ar
    12     6    35    1
    13     7     8   ar
    14     7    36    1
    15     8     9   ar
    16     8    37    1
    17     9    10   ar
    18     9    38    1
    19    10    11    1
    20    11    12    1
    21    11    39    1
    22    11    40    1
    23    12    16    1
    24    12    13    1
    25    13    14    2
    26    13    41    1
    27    14    15    1
    28    15    16    2
    29    15    42    1
    30    17    21    1
    31    17    18    1
    32    18    19    1
    33    18    43    1
    34    18    44    1
    35    19    20    1
    36    19    45    1
    37    19    46    1
    38    20    21    1
    39    20    47    1
    40    20    48    1
    41    21    22    1
    42    21    23    1
    43    23    31    1
    44    23    24    2
    45    24    25    1
    46    25    30   ar
    47    25    26   ar
    48    26    27   ar
    49    26    49    1
    50    27    28   ar
    51    27    50    1
    52    28    29   ar
    53    28    51    1
    54    29    30   ar
    55    29    52    1
    56    30    31    1
@<TRIPOS>SUBSTRUCTURE
     1 ZINC000045927156        1 TEMP              0 ****  ****    0 ROOT


##########                                Name:    ZINC000912668252
##########                DOCK_Rotatable_Bonds:                  10
##########                         Heavy_Atoms:                  30
##########                    Molecular_Weight:             411.433
##########                DOCK_Rotatable_Bonds:                  10
##########                       Formal_Charge:           0.0199993
##########                     HBond_Acceptors:                   8
##########                        HBond_Donors:                   2
##########                         Heavy_Atoms:                  30
##########                          Grid_Score:          -34.976231
##########                     Grid_vdw_energy:          -35.026745
##########                      Grid_es_energy:            0.050513
##########           Internal_energy_repulsive:           13.382011

@<TRIPOS>MOLECULE
ZINC000912668252
 52 54 1 0 0
SMALL
USER_CHARGES


@<TRIPOS>ATOM
      1 C1        -15.7453   -2.3292   57.6778 C.3     1  ZINC000912668252   -0.1700
      2 C2        -14.6840   -2.6415   58.7347 C.3     1  ZINC000912668252    0.1100
      3 N3        -14.3381   -1.4146   59.4568 N.am    1  ZINC000912668252   -0.6100
      4 C4        -15.2793   -0.8434   60.4232 C.3     1  ZINC000912668252    0.1000
      5 C5        -15.7483   -1.9365   61.3857 C.3     1  ZINC000912668252   -0.1800
      6 C6        -13.1540   -0.8115   59.2320 C.2     1  ZINC000912668252    0.5600
      7 O7        -12.8670    0.2065   59.8310 O.2     1  ZINC000912668252   -0.5300
      8 C8        -12.2041   -1.3881   58.2565 C.ar    1  ZINC000912668252   -0.1100
      9 C9        -11.2690   -2.3392   58.6679 C.ar    1  ZINC000912668252   -0.1100
     10 C10       -10.3838   -2.8763   57.7553 C.ar    1  ZINC000912668252   -0.1000
     11 C11       -10.4192   -2.4756   56.4329 C.ar    1  ZINC000912668252   -0.1200
     12 C12       -11.3466   -1.5290   56.0134 C.ar    1  ZINC000912668252    0.1400
     13 N13       -11.3786   -1.1270   54.6731 N.am    1  ZINC000912668252   -0.6700
     14 C14       -10.6252   -0.0873   54.2633 C.2     1  ZINC000912668252    0.5200
     15 O15        -9.9195    0.4999   55.0559 O.2     1  ZINC000912668252   -0.4900
     16 C16       -10.6597    0.3456   52.8203 C.3     1  ZINC000912668252    0.0500
     17 O17        -9.4320    1.0504   52.4969 O.3     1  ZINC000912668252   -0.3300
     18 C18        -8.3289    0.3001   52.3010 C.2     1  ZINC000912668252    0.5400
     19 O19        -8.4227   -0.9094   52.2205 O.2     1  ZINC000912668252   -0.4800
     20 C20        -7.0137    0.9440   52.1850 C.2     1  ZINC000912668252    0.0400
     21 C21        -5.8929    0.3623   51.6813 C.2     1  ZINC000912668252   -0.0900
     22 C22        -4.8469    1.3138   51.7458 C.ar    1  ZINC000912668252   -0.1000
     23 C23        -3.4951    1.2832   51.3788 C.ar    1  ZINC000912668252   -0.0900
     24 C24        -2.7145    2.3886   51.5687 C.ar    1  ZINC000912668252    0.0700
     25 F25        -1.4112    2.3569   51.2141 F       1  ZINC000912668252   -0.1400
     26 C26        -3.2503    3.5460   52.1234 C.ar    1  ZINC000912668252   -0.1100
     27 C27        -4.5760    3.5988   52.4920 C.ar    1  ZINC000912668252   -0.1000
     28 C28        -5.3908    2.4854   52.3083 C.ar    1  ZINC000912668252    0.1100
     29 N29        -6.7197    2.2397   52.5648 N.pl3   1  ZINC000912668252   -0.5600
     30 C30       -12.2433   -0.9876   56.9209 C.ar    1  ZINC000912668252   -0.0700
     31 H31       -16.0027   -3.2420   57.1406 H       1  ZINC000912668252    0.0700
     32 H32       -16.6357   -1.9304   58.1639 H       1  ZINC000912668252    0.0600
     33 H33       -15.3537   -1.5928   56.9761 H       1  ZINC000912668252    0.0600
     34 H34       -15.0758   -3.3779   59.4364 H       1  ZINC000912668252    0.0800
     35 H35       -13.7937   -3.0404   58.2487 H       1  ZINC000912668252    0.0900
     36 H36       -14.7860   -0.0510   60.9860 H       1  ZINC000912668252    0.0900
     37 H37       -16.1388   -0.4322   59.8939 H       1  ZINC000912668252    0.0800
     38 H38       -16.5466   -2.5134   60.9189 H       1  ZINC000912668252    0.0600
     39 H39       -14.9131   -2.5961   61.6211 H       1  ZINC000912668252    0.0700
     40 H40       -16.1193   -1.4786   62.3026 H       1  ZINC000912668252    0.0700
     41 H41       -11.2380   -2.6547   59.7003 H       1  ZINC000912668252    0.1400
     42 H42        -9.6607   -3.6117   58.0755 H       1  ZINC000912668252    0.1400
     43 H43        -9.7238   -2.8990   55.7234 H       1  ZINC000912668252    0.1300
     44 H44       -11.9430   -1.5966   54.0392 H       1  ZINC000912668252    0.4200
     45 H45       -10.7546   -0.5314   52.1800 H       1  ZINC000912668252    0.1100
     46 H46       -11.5113    1.0068   52.6595 H       1  ZINC000912668252    0.1100
     47 H47        -5.8145   -0.6454   51.3008 H       1  ZINC000912668252    0.1700
     48 H48        -3.0712    0.3885   50.9474 H       1  ZINC000912668252    0.1400
     49 H49        -2.6204    4.4115   52.2669 H       1  ZINC000912668252    0.1400
     50 H50        -4.9826    4.5019   52.9226 H       1  ZINC000912668252    0.1400
     51 H51        -7.3467    2.8713   52.9504 H       1  ZINC000912668252    0.4300
     52 H52       -12.9646   -0.2521   56.5968 H       1  ZINC000912668252    0.1400
@<TRIPOS>BOND
     1     1     2    1
     2     1    31    1
     3     1    32    1
     4     1    33    1
     5     2     3    1
     6     2    34    1
     7     2    35    1
     8     3     4    1
     9     3     6   am
    10     4     5    1
    11     4    36    1
    12     4    37    1
    13     5    38    1
    14     5    39    1
    15     5    40    1
    16     6     7    2
    17     6     8    1
    18     8    30   ar
    19     8     9   ar
    20     9    10   ar
    21     9    41    1
    22    10    11   ar
    23    10    42    1
    24    11    12   ar
    25    11    43    1
    26    12    13    1
    27    12    30   ar
    28    13    14   am
    29    13    44    1
    30    14    15    2
    31    14    16    1
    32    16    17    1
    33    16    45    1
    34    16    46    1
    35    17    18    1
    36    18    19    2
    37    18    20    1
    38    20    29    1
    39    20    21    2
    40    21    22    1
    41    21    47    1
    42    22    28   ar
    43    22    23   ar
    44    23    24   ar
    45    23    48    1
    46    24    25    1
    47    24    26   ar
    48    26    27   ar
    49    26    49    1
    50    27    28   ar
    51    27    50    1
    52    28    29    1
    53    29    51    1
    54    30    52    1
@<TRIPOS>SUBSTRUCTURE
     1 ZINC000912668252        1 TEMP              0 ****  ****    0 ROOT


##########                                Name:    ZINC000185598309
##########                DOCK_Rotatable_Bonds:                  14
##########                         Heavy_Atoms:                  25
##########                    Molecular_Weight:             347.457
##########                DOCK_Rotatable_Bonds:                  14
##########                       Formal_Charge:               -0.02
##########                     HBond_Acceptors:                   6
##########                        HBond_Donors:                   4
##########                         Heavy_Atoms:                  25
##########                          Grid_Score:          -34.933865
##########                     Grid_vdw_energy:          -33.982327
##########                      Grid_es_energy:           -0.951537
##########           Internal_energy_repulsive:           12.935941

@<TRIPOS>MOLECULE
ZINC000185598309
 54 54 1 0 0
SMALL
USER_CHARGES


@<TRIPOS>ATOM
      1 C1        -13.5766    1.8492   51.6392 C.3     1  ZINC000185598309   -0.1300
      2 C2        -12.8948    0.5412   51.9481 C.2     1  ZINC000185598309   -0.1600
      3 C3        -11.6242    0.5240   52.2663 C.2     1  ZINC000185598309   -0.1600
      4 C4        -10.9428   -0.7838   52.5769 C.3     1  ZINC000185598309   -0.0900
      5 C5         -9.8499   -0.5537   53.6226 C.3     1  ZINC000185598309    0.1700
      6 H6         -9.2812   -1.4730   53.7621 H       1  ZINC000185598309    0.1000
      7 C7        -10.4920   -0.1446   54.9497 C.3     1  ZINC000185598309    0.0600
      8 O8        -11.3526   -1.1905   55.4050 O.3     1  ZINC000185598309   -0.5700
      9 N9         -8.9531    0.5107   53.1655 N.am    1  ZINC000185598309   -0.7300
     10 C10        -7.9085    0.2152   52.3668 C.2     1  ZINC000185598309    0.7000
     11 O11        -7.7114   -0.9347   52.0244 O.2     1  ZINC000185598309   -0.5900
     12 N12        -7.0826    1.1942   51.9475 N.am    1  ZINC000185598309   -0.7400
     13 C13        -5.9461    0.8726   51.0808 C.3     1  ZINC000185598309    0.1800
     14 C14        -4.9041    1.9553   51.1964 C.ar    1  ZINC000185598309   -0.0900
     15 C15        -5.2567    3.2771   50.9971 C.ar    1  ZINC000185598309   -0.1100
     16 C16        -4.3034    4.2736   51.1018 C.ar    1  ZINC000185598309   -0.1000
     17 C17        -2.9957    3.9508   51.4062 C.ar    1  ZINC000185598309   -0.1100
     18 C18        -2.6382    2.6238   51.6073 C.ar    1  ZINC000185598309    0.1400
     19 N19        -1.3142    2.2934   51.9163 N.am    1  ZINC000185598309   -0.6800
     20 C20        -0.3771    2.2886   50.9476 C.2     1  ZINC000185598309    0.5200
     21 O21        -0.6817    2.5705   49.8079 O.2     1  ZINC000185598309   -0.5200
     22 C22         1.0489    1.9327   51.2805 C.3     1  ZINC000185598309   -0.1100
     23 H23         1.0653    1.0283   51.8885 H       1  ZINC000185598309    0.1000
     24 C24         1.6931    3.0819   52.0585 C.3     1  ZINC000185598309   -0.1500
     25 C25         1.8297    1.6918   49.9869 C.3     1  ZINC000185598309   -0.1100
     26 C26         3.1035    0.9040   50.2993 C.3     1  ZINC000185598309   -0.1600
     27 C27        -3.5989    1.6262   51.5066 C.ar    1  ZINC000185598309   -0.1300
     28 H28       -14.6236    1.6652   51.3981 H       1  ZINC000185598309    0.0600
     29 H29       -13.5137    2.5055   52.5072 H       1  ZINC000185598309    0.0600
     30 H30       -13.0858    2.3228   50.7891 H       1  ZINC000185598309    0.0600
     31 H31       -13.4538   -0.3821   51.9070 H       1  ZINC000185598309    0.1100
     32 H32       -11.0649    1.4471   52.3060 H       1  ZINC000185598309    0.1100
     33 H33       -11.6749   -1.4915   52.9660 H       1  ZINC000185598309    0.0900
     34 H34       -10.4965   -1.1859   51.6673 H       1  ZINC000185598309    0.0800
     35 H35        -9.7126    0.0331   55.6908 H       1  ZINC000185598309    0.0500
     36 H36       -11.0721    0.7671   54.8069 H       1  ZINC000185598309    0.0500
     37 H37       -10.8975   -2.0250   55.5827 H       1  ZINC000185598309    0.3800
     38 H38        -9.1111    1.4283   53.4376 H       1  ZINC000185598309    0.4000
     39 H39        -7.2405    2.1117   52.2198 H       1  ZINC000185598309    0.4000
     40 H40        -5.5148   -0.0808   51.3859 H       1  ZINC000185598309    0.0700
     41 H41        -6.2854    0.8037   50.0473 H       1  ZINC000185598309    0.0800
     42 H42        -6.2788    3.5322   50.7591 H       1  ZINC000185598309    0.1300
     43 H43        -4.5818    5.3052   50.9450 H       1  ZINC000185598309    0.1300
     44 H44        -2.2516    4.7293   51.4874 H       1  ZINC000185598309    0.1300
     45 H45        -1.0706    2.0679   52.8278 H       1  ZINC000185598309    0.4100
     46 H46         1.1368    3.2536   52.9800 H       1  ZINC000185598309    0.0600
     47 H47         2.7245    2.8246   52.2992 H       1  ZINC000185598309    0.0800
     48 H48         1.6767    3.9864   51.4504 H       1  ZINC000185598309    0.0600
     49 H49         1.2128    1.1238   49.2906 H       1  ZINC000185598309    0.0700
     50 H50         2.0953    2.6495   49.5392 H       1  ZINC000185598309    0.0700
     51 H51         3.7205    1.4720   50.9956 H       1  ZINC000185598309    0.0600
     52 H52         2.8379   -0.0537   50.7470 H       1  ZINC000185598309    0.0600
     53 H53         3.6598    0.7325   49.3777 H       1  ZINC000185598309    0.0600
     54 H54        -3.3241    0.5935   51.6625 H       1  ZINC000185598309    0.1300
@<TRIPOS>BOND
     1     1     2    1
     2     1    28    1
     3     1    29    1
     4     1    30    1
     5     2     3    2
     6     2    31    1
     7     3     4    1
     8     3    32    1
     9     4     5    1
    10     4    33    1
    11     4    34    1
    12     5     6    1
    13     5     7    1
    14     5     9    1
    15     7     8    1
    16     7    35    1
    17     7    36    1
    18     8    37    1
    19     9    10   am
    20     9    38    1
    21    10    11    2
    22    10    12   am
    23    12    13    1
    24    12    39    1
    25    13    14    1
    26    13    40    1
    27    13    41    1
    28    14    27   ar
    29    14    15   ar
    30    15    16   ar
    31    15    42    1
    32    16    17   ar
    33    16    43    1
    34    17    18   ar
    35    17    44    1
    36    18    19    1
    37    18    27   ar
    38    19    20   am
    39    19    45    1
    40    20    21    2
    41    20    22    1
    42    22    23    1
    43    22    24    1
    44    22    25    1
    45    24    46    1
    46    24    47    1
    47    24    48    1
    48    25    26    1
    49    25    49    1
    50    25    50    1
    51    26    51    1
    52    26    52    1
    53    26    53    1
    54    27    54    1
@<TRIPOS>SUBSTRUCTURE
     1 ZINC000185598309        1 TEMP              0 ****  ****    0 ROOT


##########                                Name:    ZINC000269356812
##########                DOCK_Rotatable_Bonds:                  10
##########                         Heavy_Atoms:                  25
##########                    Molecular_Weight:             387.431
##########                DOCK_Rotatable_Bonds:                  10
##########                       Formal_Charge:          0.00999978
##########                     HBond_Acceptors:                  10
##########                        HBond_Donors:                   3
##########                         Heavy_Atoms:                  25
##########                          Grid_Score:          -34.929691
##########                     Grid_vdw_energy:          -31.656818
##########                      Grid_es_energy:           -3.272873
##########           Internal_energy_repulsive:            9.509756

@<TRIPOS>MOLECULE
ZINC000269356812
 40 41 1 0 0
SMALL
USER_CHARGES


@<TRIPOS>ATOM
      1 C1         -0.4525    4.3956   51.7554 C.3     1  ZINC000269356812   -0.1400
      2 C2         -1.8782    3.9362   52.0673 C.3     1  ZINC000269356812    0.2000
      3 O3         -2.8100    4.7803   51.3881 O.3     1  ZINC000269356812   -0.5400
      4 C4         -2.0627    2.4917   51.5981 C.3     1  ZINC000269356812    0.0900
      5 N5         -3.4381    2.0635   51.8647 N.am    1  ZINC000269356812   -0.6900
      6 C6         -4.3230    1.9699   50.8524 C.2     1  ZINC000269356812    0.5100
      7 O7         -3.9807    2.2418   49.7202 O.2     1  ZINC000269356812   -0.5100
      8 C8         -5.7244    1.5318   51.1239 C.2     1  ZINC000269356812    0.5100
      9 O9         -6.5677    1.6223   50.2554 O.2     1  ZINC000269356812   -0.4900
     10 N10        -6.0532    1.0359   52.3332 N.am    1  ZINC000269356812   -0.6400
     11 C11        -7.3663    0.6254   52.5876 C.ar    1  ZINC000269356812    0.0900
     12 C12        -8.3221    1.5445   53.0199 C.ar    1  ZINC000269356812   -0.0600
     13 C13        -9.6073    1.0951   53.2586 C.ar    1  ZINC000269356812   -0.1200
     14 C14        -9.9031   -0.2503   53.0613 C.ar    1  ZINC000269356812    0.1000
     15 S15       -11.5376   -0.8360   53.3614 S.3     1  ZINC000269356812   -0.0600
     16 C16       -12.4615   -0.2201   51.9271 C.3     1  ZINC000269356812    0.2900
     17 F17       -13.8177   -0.5285   52.0785 F       1  ZINC000269356812   -0.1700
     18 F18       -12.3064    1.1671   51.8329 F       1  ZINC000269356812   -0.1700
     19 N19        -8.9699   -1.0954   52.6498 N.ar    1  ZINC000269356812   -0.4600
     20 C20        -7.7351   -0.7000   52.4073 C.ar    1  ZINC000269356812    0.1100
     21 C21        -2.1180    4.0164   53.5529 C.2     1  ZINC000269356812   -0.2300
     22 C22        -1.1821    3.8693   54.4919 C.2     1  ZINC000269356812   -0.1100
     23 C23        -1.6387    3.9849   55.7936 C.2     1  ZINC000269356812   -0.1400
     24 C24        -2.9453    4.2259   55.9117 C.2     1  ZINC000269356812   -0.2000
     25 S25        -3.6733    4.3260   54.3136 S.3     1  ZINC000269356812    0.1100
     26 H26        -0.3211    5.4248   52.0896 H       1  ZINC000269356812    0.0800
     27 H27         0.2582    3.7518   52.2735 H       1  ZINC000269356812    0.0800
     28 H28        -0.2790    4.3377   50.6808 H       1  ZINC000269356812    0.0700
     29 H29        -2.7192    4.7718   50.4254 H       1  ZINC000269356812    0.3800
     30 H30        -1.8635    2.4289   50.5283 H       1  ZINC000269356812    0.0900
     31 H31        -1.3699    1.8440   52.1352 H       1  ZINC000269356812    0.0900
     32 H32        -3.7120    1.8473   52.7698 H       1  ZINC000269356812    0.4200
     33 H33        -5.3793    0.9637   53.0273 H       1  ZINC000269356812    0.4300
     34 H34        -8.0639    2.5832   53.1650 H       1  ZINC000269356812    0.1600
     35 H35       -10.3722    1.7795   53.5947 H       1  ZINC000269356812    0.1500
     36 H36       -12.0810   -0.6907   51.0204 H       1  ZINC000269356812    0.1500
     37 H37        -7.0006   -1.4178   52.0731 H       1  ZINC000269356812    0.1700
     38 H38        -0.1467    3.6743   54.2547 H       1  ZINC000269356812    0.1500
     39 H39        -0.9863    3.8870   56.6488 H       1  ZINC000269356812    0.1400
     40 H40        -3.4745    4.3451   56.8455 H       1  ZINC000269356812    0.1700
@<TRIPOS>BOND
     1     1     2    1
     2     1    26    1
     3     1    27    1
     4     1    28    1
     5     2     3    1
     6     2     4    1
     7     2    21    1
     8     3    29    1
     9     4     5    1
    10     4    30    1
    11     4    31    1
    12     5     6   am
    13     5    32    1
    14     6     7    2
    15     6     8    1
    16     8     9    2
    17     8    10   am
    18    10    11    1
    19    10    33    1
    20    11    20   ar
    21    11    12   ar
    22    12    13   ar
    23    12    34    1
    24    13    14   ar
    25    13    35    1
    26    14    15    1
    27    14    19   ar
    28    15    16    1
    29    16    17    1
    30    16    18    1
    31    16    36    1
    32    19    20   ar
    33    20    37    1
    34    21    25    1
    35    21    22    2
    36    22    23    1
    37    22    38    1
    38    23    24    2
    39    23    39    1
    40    24    25    1
    41    24    40    1
@<TRIPOS>SUBSTRUCTURE
     1 ZINC000269356812        1 TEMP              0 ****  ****    0 ROOT


##########                                Name:    ZINC000046390957
##########                DOCK_Rotatable_Bonds:                   9
##########                         Heavy_Atoms:                  29
##########                    Molecular_Weight:             408.521
##########                DOCK_Rotatable_Bonds:                   9
##########                       Formal_Charge:           0.0100005
##########                     HBond_Acceptors:                   6
##########                        HBond_Donors:                   1
##########                         Heavy_Atoms:                  29
##########                          Grid_Score:          -34.813915
##########                     Grid_vdw_energy:          -34.813217
##########                      Grid_es_energy:           -0.000697
##########           Internal_energy_repulsive:           13.956042

@<TRIPOS>MOLECULE
ZINC000046390957
 53 55 1 0 0
SMALL
USER_CHARGES


@<TRIPOS>ATOM
      1 C1         -0.9617    1.8536   49.9587 C.3     1  ZINC000046390957   -0.1100
      2 C2         -0.6487    2.8101   51.0804 C.ar    1  ZINC000046390957   -0.0600
      3 C3          0.5687    3.4616   51.1139 C.ar    1  ZINC000046390957   -0.1200
      4 C4          0.8570    4.3390   52.1430 C.ar    1  ZINC000046390957   -0.1100
      5 C5         -0.0722    4.5675   53.1413 C.ar    1  ZINC000046390957   -0.1200
      6 C6         -1.2916    3.9196   53.1134 C.ar    1  ZINC000046390957   -0.0800
      7 C7         -2.3038    4.1696   54.2015 C.3     1  ZINC000046390957   -0.1100
      8 C8         -1.5861    3.0418   52.0783 C.ar    1  ZINC000046390957    0.1300
      9 N9         -2.8208    2.3841   52.0468 N.am    1  ZINC000046390957   -0.6800
     10 C10        -3.8574    2.9284   51.3792 C.2     1  ZINC000046390957    0.5200
     11 O11        -3.7201    3.9884   50.8059 O.2     1  ZINC000046390957   -0.4900
     12 C12        -5.1872    2.2201   51.3452 C.3     1  ZINC000046390957    0.0700
     13 H13        -5.7026    2.3692   52.2940 H       1  ZINC000046390957    0.1100
     14 C14        -6.0384    2.7880   50.2078 C.3     1  ZINC000046390957   -0.1700
     15 O15        -4.9740    0.8004   51.1280 O.3     1  ZINC000046390957   -0.3300
     16 C16        -5.9479   -0.0307   51.5309 C.2     1  ZINC000046390957    0.4700
     17 O17        -6.4435   -0.8056   50.7474 O.2     1  ZINC000046390957   -0.4800
     18 C18        -6.4233    0.0026   52.9606 C.3     1  ZINC000046390957   -0.0300
     19 C19        -7.8679    0.4302   52.9998 C.2     1  ZINC000046390957    0.0800
     20 C20        -8.2427    1.6887   53.2479 C.2     1  ZINC000046390957   -0.2500
     21 S21       -10.0030    1.7496   53.2003 S.3     1  ZINC000046390957    0.1300
     22 C22       -10.0599    0.0767   52.8515 C.2     1  ZINC000046390957    0.0600
     23 C23       -11.3229   -0.7185   52.6432 C.3     1  ZINC000046390957    0.0000
     24 C24       -12.4578   -0.0624   53.3866 C.ar    1  ZINC000046390957   -0.0900
     25 C25       -13.2291    0.8995   52.7614 C.ar    1  ZINC000046390957   -0.0900
     26 C26       -14.2700    1.5014   53.4433 C.ar    1  ZINC000046390957   -0.1200
     27 C27       -14.5400    1.1411   54.7502 C.ar    1  ZINC000046390957   -0.1200
     28 C28       -13.7694    0.1786   55.3752 C.ar    1  ZINC000046390957   -0.1200
     29 C29       -12.7311   -0.4264   54.6919 C.ar    1  ZINC000046390957   -0.1100
     30 N30        -8.8646   -0.4050   52.7867 N.2     1  ZINC000046390957   -0.4500
     31 H31        -1.3274    2.4116   49.0967 H       1  ZINC000046390957    0.0800
     32 H32        -0.0585    1.3093   49.6826 H       1  ZINC000046390957    0.0700
     33 H33        -1.7256    1.1480   50.2854 H       1  ZINC000046390957    0.0600
     34 H34         1.2965    3.2852   50.3356 H       1  ZINC000046390957    0.1300
     35 H35         1.8099    4.8466   52.1674 H       1  ZINC000046390957    0.1300
     36 H36         0.1560    5.2532   53.9440 H       1  ZINC000046390957    0.1300
     37 H37        -2.9460    5.0028   53.9159 H       1  ZINC000046390957    0.0700
     38 H38        -2.9108    3.2758   54.3454 H       1  ZINC000046390957    0.0600
     39 H39        -1.7868    4.4111   55.1302 H       1  ZINC000046390957    0.0700
     40 H40        -2.9307    1.5365   52.5053 H       1  ZINC000046390957    0.4100
     41 H41        -6.1985    3.8538   50.3709 H       1  ZINC000046390957    0.0800
     42 H42        -5.5231    2.6390   49.2589 H       1  ZINC000046390957    0.0800
     43 H43        -7.0004    2.2757   50.1832 H       1  ZINC000046390957    0.0800
     44 H44        -6.3263   -0.9906   53.3990 H       1  ZINC000046390957    0.1200
     45 H45        -5.8193    0.7107   53.5279 H       1  ZINC000046390957    0.1300
     46 H46        -7.5832    2.5214   53.4432 H       1  ZINC000046390957    0.1800
     47 H47       -11.5582   -0.7549   51.5795 H       1  ZINC000046390957    0.1000
     48 H48       -11.1804   -1.7318   53.0187 H       1  ZINC000046390957    0.1000
     49 H49       -13.0181    1.1809   51.7402 H       1  ZINC000046390957    0.1200
     50 H50       -14.8721    2.2533   52.9550 H       1  ZINC000046390957    0.1200
     51 H51       -15.3530    1.6119   55.2832 H       1  ZINC000046390957    0.1200
     52 H52       -13.9801   -0.1027   56.3964 H       1  ZINC000046390957    0.1200
     53 H53       -12.1290   -1.1783   55.1801 H       1  ZINC000046390957    0.1200
@<TRIPOS>BOND
     1     1     2    1
     2     1    31    1
     3     1    32    1
     4     1    33    1
     5     2     8   ar
     6     2     3   ar
     7     3     4   ar
     8     3    34    1
     9     4     5   ar
    10     4    35    1
    11     5     6   ar
    12     5    36    1
    13     6     7    1
    14     6     8   ar
    15     7    37    1
    16     7    38    1
    17     7    39    1
    18     8     9    1
    19     9    10   am
    20     9    40    1
    21    10    11    2
    22    10    12    1
    23    12    13    1
    24    12    14    1
    25    12    15    1
    26    14    41    1
    27    14    42    1
    28    14    43    1
    29    15    16    1
    30    16    17    2
    31    16    18    1
    32    18    19    1
    33    18    44    1
    34    18    45    1
    35    19    30    1
    36    19    20    2
    37    20    21    1
    38    20    46    1
    39    21    22    1
    40    22    23    1
    41    22    30    2
    42    23    24    1
    43    23    47    1
    44    23    48    1
    45    24    29   ar
    46    24    25   ar
    47    25    26   ar
    48    25    49    1
    49    26    27   ar
    50    26    50    1
    51    27    28   ar
    52    27    51    1
    53    28    29   ar
    54    28    52    1
    55    29    53    1
@<TRIPOS>SUBSTRUCTURE
     1 ZINC000046390957        1 TEMP              0 ****  ****    0 ROOT


##########                                Name:    ZINC001169875900
##########                DOCK_Rotatable_Bonds:                   9
##########                         Heavy_Atoms:                  24
##########                    Molecular_Weight:             329.399
##########                DOCK_Rotatable_Bonds:                   9
##########                       Formal_Charge:          -0.0500002
##########                     HBond_Acceptors:                   6
##########                        HBond_Donors:                   1
##########                         Heavy_Atoms:                  24
##########                          Grid_Score:          -34.803581
##########                     Grid_vdw_energy:          -35.002502
##########                      Grid_es_energy:            0.198920
##########           Internal_energy_repulsive:            5.184131

@<TRIPOS>MOLECULE
ZINC001169875900
 47 48 1 0 0
SMALL
USER_CHARGES


@<TRIPOS>ATOM
      1 C1         -1.8168    1.8508   49.7371 C.3     1  ZINC001169875900   -0.1500
      2 C2         -2.6464    1.7294   51.0169 C.3     1  ZINC001169875900   -0.1300
      3 C3         -3.7526    2.7863   51.0098 C.3     1  ZINC001169875900    0.0700
      4 O4         -4.8877    2.2832   50.3024 O.3     1  ZINC001169875900   -0.3100
      5 C5         -5.8682    1.7043   51.0422 C.ar    1  ZINC001169875900    0.2700
      6 N6         -5.8066    0.4115   51.3111 N.ar    1  ZINC001169875900   -0.5000
      7 C7         -6.7394   -0.1949   52.0208 C.ar    1  ZINC001169875900    0.0600
      8 C8         -7.8233    0.5126   52.5182 C.ar    1  ZINC001169875900    0.1400
      9 N9         -8.8095   -0.1371   53.2699 N.pl3   1  ZINC001169875900   -0.7400
     10 C10       -10.1367   -0.3670   52.6938 C.3     1  ZINC001169875900    0.1800
     11 C11       -11.1123   -0.6946   53.7948 C.ar    1  ZINC001169875900    0.1000
     12 C12       -12.4257   -0.2641   53.6945 C.ar    1  ZINC001169875900   -0.1200
     13 C13       -13.3198   -0.5676   54.7095 C.ar    1  ZINC001169875900   -0.0800
     14 C14       -12.8634   -1.2964   55.7963 C.ar    1  ZINC001169875900   -0.1000
     15 C15       -11.5291   -1.6965   55.8308 C.ar    1  ZINC001169875900    0.0900
     16 C16       -11.0259   -2.4757   56.9850 C.2     1  ZINC001169875900    0.5200
     17 O17       -10.2373   -3.3821   56.8082 O.2     1  ZINC001169875900   -0.5000
     18 O18       -11.4426   -2.1791   58.2308 O.3     1  ZINC001169875900   -0.3300
     19 C19       -10.9253   -0.9601   58.8262 C.3     1  ZINC001169875900    0.0600
     20 C20       -11.5055   -0.7931   60.2321 C.3     1  ZINC001169875900   -0.1500
     21 N21       -10.7068   -1.3894   54.8350 N.ar    1  ZINC001169875900   -0.4200
     22 C22        -7.9186    1.8789   52.2597 C.ar    1  ZINC001169875900   -0.1200
     23 C23        -6.9210    2.4787   51.5121 C.ar    1  ZINC001169875900   -0.1000
     24 C24        -6.9792    3.9532   51.2060 C.3     1  ZINC001169875900   -0.1000
     25 H25        -1.3702    2.8438   49.6864 H       1  ZINC001169875900    0.0600
     26 H26        -1.0287    1.0978   49.7422 H       1  ZINC001169875900    0.0600
     27 H27        -2.4604    1.6972   48.8710 H       1  ZINC001169875900    0.0600
     28 H28        -2.0027    1.8829   51.8831 H       1  ZINC001169875900    0.0700
     29 H29        -3.0930    0.7363   51.0676 H       1  ZINC001169875900    0.0700
     30 H30        -3.3894    3.6891   50.5187 H       1  ZINC001169875900    0.0600
     31 H31        -4.0381    3.0204   52.0354 H       1  ZINC001169875900    0.0600
     32 H32        -6.6579   -1.2540   52.2159 H       1  ZINC001169875900    0.1500
     33 H33        -8.6140   -0.4350   54.1720 H       1  ZINC001169875900    0.4000
     34 H34       -10.4666    0.5309   52.1713 H       1  ZINC001169875900    0.0800
     35 H35       -10.0888   -1.1992   51.9914 H       1  ZINC001169875900    0.0800
     36 H36       -12.7495    0.3025   52.8339 H       1  ZINC001169875900    0.1500
     37 H37       -14.3486   -0.2437   54.6543 H       1  ZINC001169875900    0.1500
     38 H38       -13.5325   -1.5503   56.6053 H       1  ZINC001169875900    0.1500
     39 H39        -9.8385   -1.0178   58.8861 H       1  ZINC001169875900    0.0700
     40 H40       -11.2104   -0.1062   58.2117 H       1  ZINC001169875900    0.0700
     41 H41       -12.5922   -0.7354   60.1722 H       1  ZINC001169875900    0.0700
     42 H42       -11.2203   -1.6470   60.8466 H       1  ZINC001169875900    0.0700
     43 H43       -11.1171    0.1220   60.6791 H       1  ZINC001169875900    0.0800
     44 H44        -8.7515    2.4557   52.6339 H       1  ZINC001169875900    0.1400
     45 H45        -6.4682    4.5081   51.9928 H       1  ZINC001169875900    0.0700
     46 H46        -8.0201    4.2726   51.1535 H       1  ZINC001169875900    0.0700
     47 H47        -6.4915    4.1454   50.2503 H       1  ZINC001169875900    0.0700
@<TRIPOS>BOND
     1     1     2    1
     2     1    25    1
     3     1    26    1
     4     1    27    1
     5     2     3    1
     6     2    28    1
     7     2    29    1
     8     3     4    1
     9     3    30    1
    10     3    31    1
    11     4     5    1
    12     5    23   ar
    13     5     6   ar
    14     6     7   ar
    15     7     8   ar
    16     7    32    1
    17     8     9    1
    18     8    22   ar
    19     9    10    1
    20     9    33    1
    21    10    11    1
    22    10    34    1
    23    10    35    1
    24    11    21   ar
    25    11    12   ar
    26    12    13   ar
    27    12    36    1
    28    13    14   ar
    29    13    37    1
    30    14    15   ar
    31    14    38    1
    32    15    16    1
    33    15    21   ar
    34    16    17    2
    35    16    18    1
    36    18    19    1
    37    19    20    1
    38    19    39    1
    39    19    40    1
    40    20    41    1
    41    20    42    1
    42    20    43    1
    43    22    23   ar
    44    22    44    1
    45    23    24    1
    46    24    45    1
    47    24    46    1
    48    24    47    1
@<TRIPOS>SUBSTRUCTURE
     1 ZINC001169875900        1 TEMP              0 ****  ****    0 ROOT


##########                                Name:    ZINC001191196975
##########                DOCK_Rotatable_Bonds:                  14
##########                         Heavy_Atoms:                  24
##########                    Molecular_Weight:             339.438
##########                DOCK_Rotatable_Bonds:                  14
##########                       Formal_Charge:          0.00999969
##########                     HBond_Acceptors:                   8
##########                        HBond_Donors:                   4
##########                         Heavy_Atoms:                  24
##########                          Grid_Score:          -34.748158
##########                     Grid_vdw_energy:          -34.890434
##########                      Grid_es_energy:            0.142277
##########           Internal_energy_repulsive:           12.916028

@<TRIPOS>MOLECULE
ZINC001191196975
 53 53 1 0 0
SMALL
USER_CHARGES


@<TRIPOS>ATOM
      1 C1          2.3344    3.7670   49.6153 C.2     1  ZINC001191196975   -0.1600
      2 C2          1.1091    3.4061   49.9060 C.2     1  ZINC001191196975   -0.1800
      3 C3          0.6201    2.0303   49.5326 C.3     1  ZINC001191196975    0.1500
      4 N4         -0.8403    2.0456   49.4178 N.am    1  ZINC001191196975   -0.7300
      5 C5         -1.6036    2.0401   50.5285 C.2     1  ZINC001191196975    0.5100
      6 O6         -1.0815    2.0239   51.6230 O.2     1  ZINC001191196975   -0.5200
      7 C7         -3.1059    2.0539   50.4104 C.3     1  ZINC001191196975    0.0300
      8 N8         -3.6742    2.8764   51.4869 N.3     1  ZINC001191196975   -0.5100
      9 C9         -3.3546    4.2966   51.2889 C.3     1  ZINC001191196975    0.0200
     10 C10        -5.1251    2.6734   51.5945 C.3     1  ZINC001191196975    0.0700
     11 H11        -5.6386    3.0661   50.7170 H       1  ZINC001191196975    0.0600
     12 C12        -5.6807    3.3103   52.8957 C.3     1  ZINC001191196975   -0.1200
     13 C13        -6.9396    2.4655   53.1838 C.3     1  ZINC001191196975    0.1000
     14 N14        -6.7702    1.1796   52.4915 N.am    1  ZINC001191196975   -0.6200
     15 C15        -7.6636    0.1705   52.4790 C.2     1  ZINC001191196975    0.5300
     16 O16        -7.4168   -0.8504   51.8726 O.2     1  ZINC001191196975   -0.5400
     17 C17        -8.9691    0.3108   53.2185 C.3     1  ZINC001191196975   -0.1300
     18 C18        -9.7732   -0.9839   53.0840 C.3     1  ZINC001191196975   -0.1000
     19 C19       -11.0348   -0.8925   53.9447 C.3     1  ZINC001191196975   -0.1300
     20 C20       -10.6972   -1.2760   55.3868 C.3     1  ZINC001191196975    0.1400
     21 N21       -11.9323   -1.5823   56.1126 N.am    1  ZINC001191196975   -0.7500
     22 C22       -11.9061   -2.4307   57.1595 C.2     1  ZINC001191196975    0.7000
     23 N23       -13.0421   -2.7113   57.8282 N.am    1  ZINC001191196975   -0.8700
     24 O24       -10.8574   -2.9429   57.5008 O.2     1  ZINC001191196975   -0.5900
     25 C25        -5.4616    1.1769   51.8114 C.3     1  ZINC001191196975    0.1100
     26 H26         2.9941    3.0786   49.1080 H       1  ZINC001191196975    0.1000
     27 H27         2.6834    4.7544   49.8789 H       1  ZINC001191196975    0.1000
     28 H28         0.4493    4.0944   50.4133 H       1  ZINC001191196975    0.1200
     29 H29         1.0565    1.7363   48.5781 H       1  ZINC001191196975    0.0800
     30 H30         0.9167    1.3181   50.3025 H       1  ZINC001191196975    0.0700
     31 H31        -1.2578    2.0597   48.5424 H       1  ZINC001191196975    0.4000
     32 H32        -3.3907    2.4720   49.4449 H       1  ZINC001191196975    0.0700
     33 H33        -3.4863    1.0357   50.4919 H       1  ZINC001191196975    0.1100
     34 H34        -3.6698    4.6044   50.2918 H       1  ZINC001191196975    0.0200
     35 H35        -3.8772    4.8941   52.0357 H       1  ZINC001191196975    0.0700
     36 H36        -2.2797    4.4450   51.3922 H       1  ZINC001191196975    0.0900
     37 H37        -4.9601    3.2183   53.7084 H       1  ZINC001191196975    0.0900
     38 H38        -5.9464    4.3545   52.7309 H       1  ZINC001191196975    0.0800
     39 H39        -7.0367    2.2989   54.2566 H       1  ZINC001191196975    0.0700
     40 H40        -7.8242    2.9770   52.8045 H       1  ZINC001191196975    0.0700
     41 H41        -8.7705    0.5074   54.2721 H       1  ZINC001191196975    0.0900
     42 H42        -9.5391    1.1381   52.7956 H       1  ZINC001191196975    0.0900
     43 H43       -10.0546   -1.1301   52.0411 H       1  ZINC001191196975    0.0800
     44 H44        -9.1657   -1.8252   53.4178 H       1  ZINC001191196975    0.0800
     45 H45       -11.4182    0.1276   53.9202 H       1  ZINC001191196975    0.0700
     46 H46       -11.7907   -1.5742   53.5549 H       1  ZINC001191196975    0.0700
     47 H47       -10.0486   -2.1519   55.3876 H       1  ZINC001191196975    0.0700
     48 H48       -10.1863   -0.4451   55.8736 H       1  ZINC001191196975    0.0700
     49 H49       -12.7691   -1.1746   55.8397 H       1  ZINC001191196975    0.4000
     50 H50       -13.0230   -3.3210   58.5825 H       1  ZINC001191196975    0.4000
     51 H51       -13.8788   -2.3035   57.5552 H       1  ZINC001191196975    0.4200
     52 H52        -5.5326    0.6604   50.8542 H       1  ZINC001191196975    0.0800
     53 H53        -4.7073    0.7066   52.4421 H       1  ZINC001191196975    0.0800
@<TRIPOS>BOND
     1     1     2    2
     2     1    26    1
     3     1    27    1
     4     2     3    1
     5     2    28    1
     6     3     4    1
     7     3    29    1
     8     3    30    1
     9     4     5   am
    10     4    31    1
    11     5     6    2
    12     5     7    1
    13     7     8    1
    14     7    32    1
    15     7    33    1
    16     8     9    1
    17     8    10    1
    18     9    34    1
    19     9    35    1
    20     9    36    1
    21    10    11    1
    22    10    25    1
    23    10    12    1
    24    12    13    1
    25    12    37    1
    26    12    38    1
    27    13    14    1
    28    13    39    1
    29    13    40    1
    30    14    15   am
    31    14    25    1
    32    15    16    2
    33    15    17    1
    34    17    18    1
    35    17    41    1
    36    17    42    1
    37    18    19    1
    38    18    43    1
    39    18    44    1
    40    19    20    1
    41    19    45    1
    42    19    46    1
    43    20    21    1
    44    20    47    1
    45    20    48    1
    46    21    22   am
    47    21    49    1
    48    22    23   am
    49    22    24    2
    50    23    50    1
    51    23    51    1
    52    25    52    1
    53    25    53    1
@<TRIPOS>SUBSTRUCTURE
     1 ZINC001191196975        1 TEMP              0 ****  ****    0 ROOT


##########                                Name:    ZINC000583220082
##########                DOCK_Rotatable_Bonds:                   9
##########                         Heavy_Atoms:                  29
##########                    Molecular_Weight:             417.492
##########                DOCK_Rotatable_Bonds:                   9
##########                       Formal_Charge:          -0.0400006
##########                     HBond_Acceptors:                  11
##########                        HBond_Donors:                   3
##########                         Heavy_Atoms:                  29
##########                          Grid_Score:          -34.692940
##########                     Grid_vdw_energy:          -34.243198
##########                      Grid_es_energy:           -0.449741
##########           Internal_energy_repulsive:           17.624828

@<TRIPOS>MOLECULE
ZINC000583220082
 52 54 1 0 0
SMALL
USER_CHARGES


@<TRIPOS>ATOM
      1 C1        -15.2540   -2.3613   58.5455 C.3     1  ZINC000583220082    0.0800
      2 N2        -13.8893   -1.8561   58.7144 N.am    1  ZINC000583220082   -0.6300
      3 C3        -13.6318   -0.7274   59.6120 C.3     1  ZINC000583220082    0.0800
      4 C4        -12.8706   -2.4300   58.0440 C.2     1  ZINC000583220082    0.5100
      5 O5        -13.0839   -3.3636   57.2997 O.2     1  ZINC000583220082   -0.5300
      6 C6        -11.4665   -1.9116   58.2191 C.3     1  ZINC000583220082   -0.1000
      7 C7        -11.0657   -1.1242   56.9983 C.ar    1  ZINC000583220082   -0.0800
      8 C8        -10.6530   -1.7853   55.8559 C.ar    1  ZINC000583220082   -0.0800
      9 C9        -10.2851   -1.0669   54.7353 C.ar    1  ZINC000583220082   -0.1400
     10 C10       -10.3306    0.3214   54.7564 C.ar    1  ZINC000583220082    0.1400
     11 N11        -9.9594    1.0515   53.6243 N.am    1  ZINC000583220082   -0.6400
     12 C12        -8.8228    1.7756   53.6322 C.2     1  ZINC000583220082    0.5100
     13 O13        -8.1214    1.7935   54.6226 O.2     1  ZINC000583220082   -0.4900
     14 C14        -8.4261    2.5560   52.4220 C.2     1  ZINC000583220082    0.5100
     15 O15        -9.0535    3.5454   52.1054 O.2     1  ZINC000583220082   -0.5100
     16 N16        -7.3713    2.1614   51.6816 N.am    1  ZINC000583220082   -0.5800
     17 C17        -6.9600    2.9188   50.4898 C.3     1  ZINC000583220082    0.0600
     18 C18        -5.4595    3.2122   50.5934 C.3     1  ZINC000583220082    0.0300
     19 N19        -4.7319    1.9549   50.8121 N.3     1  ZINC000583220082   -0.4300
     20 C20        -3.3654    2.1559   50.7495 C.2     1  ZINC000583220082    0.2900
     21 N21        -2.5211    1.6483   49.8765 N.2     1  ZINC000583220082   -0.5700
     22 C22        -1.2544    1.9824   50.0128 C.2     1  ZINC000583220082    0.5400
     23 N23        -0.2821    1.4979   49.1388 N.pl3   1  ZINC000583220082   -0.8200
     24 N24        -0.9412    2.7839   50.9957 N.2     1  ZINC000583220082   -0.5500
     25 S25        -2.4013    3.1306   51.7927 S.3     1  ZINC000583220082    0.2000
     26 C26        -5.1147    1.3325   52.0864 C.3     1  ZINC000583220082    0.0500
     27 C27        -6.5973    0.9655   52.0475 C.3     1  ZINC000583220082    0.1100
     28 C28       -10.7461    0.9823   55.9056 C.ar    1  ZINC000583220082   -0.1200
     29 C29       -11.1171    0.2575   57.0210 C.ar    1  ZINC000583220082   -0.0800
     30 H30       -15.7378   -1.8332   57.7237 H       1  ZINC000583220082    0.0500
     31 H31       -15.2219   -3.4279   58.3231 H       1  ZINC000583220082    0.0800
     32 H32       -15.8180   -2.1985   59.4640 H       1  ZINC000583220082    0.0700
     33 H33       -14.5692   -0.3994   60.0614 H       1  ZINC000583220082    0.0800
     34 H34       -12.9416   -1.0372   60.3966 H       1  ZINC000583220082    0.0600
     35 H35       -13.1932    0.0943   59.0459 H       1  ZINC000583220082    0.0600
     36 H36       -11.4239   -1.2673   59.0972 H       1  ZINC000583220082    0.1000
     37 H37       -10.7832   -2.7506   58.3507 H       1  ZINC000583220082    0.1000
     38 H38       -10.6180   -2.8647   55.8401 H       1  ZINC000583220082    0.1300
     39 H39        -9.9622   -1.5838   53.8437 H       1  ZINC000583220082    0.1300
     40 H40       -10.5199    1.0372   52.8327 H       1  ZINC000583220082    0.4200
     41 H41        -7.1567    2.3285   49.5948 H       1  ZINC000583220082    0.0900
     42 H42        -7.5140    3.8563   50.4425 H       1  ZINC000583220082    0.1700
     43 H43        -5.1149    3.6758   49.6690 H       1  ZINC000583220082    0.1100
     44 H44        -5.2778    3.8876   51.4293 H       1  ZINC000583220082    0.0700
     45 H45        -0.4336    0.6709   48.6552 H       1  ZINC000583220082    0.4200
     46 H46         0.5457    1.9880   49.0144 H       1  ZINC000583220082    0.4200
     47 H47        -4.5200    0.4328   52.2448 H       1  ZINC000583220082    0.1100
     48 H48        -4.9379    2.0341   52.9015 H       1  ZINC000583220082    0.0600
     49 H49        -6.9123    0.6095   53.0284 H       1  ZINC000583220082    0.1100
     50 H50        -6.7625    0.1875   51.3021 H       1  ZINC000583220082    0.0900
     51 H51       -10.7826    2.0616   55.9254 H       1  ZINC000583220082    0.1400
     52 H52       -11.4403    0.7706   57.9147 H       1  ZINC000583220082    0.1300
@<TRIPOS>BOND
     1     1     2    1
     2     1    30    1
     3     1    31    1
     4     1    32    1
     5     2     3    1
     6     2     4   am
     7     3    33    1
     8     3    34    1
     9     3    35    1
    10     4     5    2
    11     4     6    1
    12     6     7    1
    13     6    36    1
    14     6    37    1
    15     7    29   ar
    16     7     8   ar
    17     8     9   ar
    18     8    38    1
    19     9    10   ar
    20     9    39    1
    21    10    11    1
    22    10    28   ar
    23    11    12   am
    24    11    40    1
    25    12    13    2
    26    12    14    1
    27    14    15    2
    28    14    16   am
    29    16    27    1
    30    16    17    1
    31    17    18    1
    32    17    41    1
    33    17    42    1
    34    18    19    1
    35    18    43    1
    36    18    44    1
    37    19    20    1
    38    19    26    1
    39    20    25    1
    40    20    21    2
    41    21    22    1
    42    22    23    1
    43    22    24    2
    44    23    45    1
    45    23    46    1
    46    24    25    1
    47    26    27    1
    48    26    47    1
    49    26    48    1
    50    27    49    1
    51    27    50    1
    52    28    29   ar
    53    28    51    1
    54    29    52    1
@<TRIPOS>SUBSTRUCTURE
     1 ZINC000583220082        1 TEMP              0 ****  ****    0 ROOT


##########                                Name:    ZINC000600609084
##########                DOCK_Rotatable_Bonds:                   8
##########                         Heavy_Atoms:                  30
##########                    Molecular_Weight:             422.548
##########                DOCK_Rotatable_Bonds:                   8
##########                       Formal_Charge:           0.0100005
##########                     HBond_Acceptors:                   6
##########                        HBond_Donors:                   2
##########                         Heavy_Atoms:                  30
##########                          Grid_Score:          -34.669334
##########                     Grid_vdw_energy:          -33.818356
##########                      Grid_es_energy:           -0.850977
##########           Internal_energy_repulsive:           22.093044

@<TRIPOS>MOLECULE
ZINC000600609084
 56 59 1 0 0
SMALL
USER_CHARGES


@<TRIPOS>ATOM
      1 O1         -8.4354   -0.8346   52.8214 O.2     1  ZINC000600609084   -0.5300
      2 C2         -8.1011    0.2612   52.4233 C.2     1  ZINC000600609084    0.5200
      3 C3         -6.8144    0.4236   51.6557 C.3     1  ZINC000600609084   -0.1500
      4 C4         -5.8811    1.3661   52.4181 C.3     1  ZINC000600609084    0.1300
      5 N5         -6.0983    2.7417   51.9636 N.am    1  ZINC000600609084   -1.1200
      6 S6         -5.2402    3.3339   50.6769 S.o2    1  ZINC000600609084    2.7000
      7 O7         -5.4345    2.4170   49.6089 O.2     1  ZINC000600609084   -0.9600
      8 O8         -5.5599    4.7154   50.5833 O.2     1  ZINC000600609084   -0.9500
      9 C9         -3.5330    3.2462   51.1038 C.ar    1  ZINC000600609084   -0.6700
     10 C10        -3.0687    3.9360   52.2218 C.ar    1  ZINC000600609084   -0.0400
     11 C11        -1.7561    3.8893   52.5792 C.ar    1  ZINC000600609084   -0.1200
     12 C12        -0.8530    3.1349   51.8114 C.ar    1  ZINC000600609084   -0.0100
     13 C13         0.5092    3.0621   52.1492 C.ar    1  ZINC000600609084   -0.1200
     14 C14         1.3546    2.3211   51.3821 C.ar    1  ZINC000600609084   -0.0900
     15 C15         0.8902    1.6310   50.2636 C.ar    1  ZINC000600609084   -0.1200
     16 C16        -0.4220    1.6782   49.9061 C.ar    1  ZINC000600609084   -0.0900
     17 C17        -1.3253    2.4330   50.6739 C.ar    1  ZINC000600609084   -0.0800
     18 C18        -2.6883    2.5008   50.3396 C.ar    1  ZINC000600609084    0.0200
     19 N19        -8.8831    1.3325   52.6624 N.am    1  ZINC000600609084   -0.7200
     20 C20       -10.1338    1.1745   53.4086 C.3     1  ZINC000600609084    0.1400
     21 H21       -10.6417    0.2620   53.0966 H       1  ZINC000600609084    0.1000
     22 C22        -9.8440    1.1262   54.9191 C.3     1  ZINC000600609084   -0.1300
     23 C23       -10.5910    2.3195   55.5496 C.3     1  ZINC000600609084   -0.1300
     24 C24       -10.7596    3.3224   54.3813 C.3     1  ZINC000600609084   -0.1200
     25 C25       -11.0475    2.3949   53.1730 C.3     1  ZINC000600609084   -0.0700
     26 H26       -12.0947    2.0924   53.1653 H       1  ZINC000600609084    0.0900
     27 C27       -10.6896    3.0846   51.8817 C.ar    1  ZINC000600609084   -0.0600
     28 C28       -11.5339    2.9912   50.7912 C.ar    1  ZINC000600609084   -0.1100
     29 C29       -11.2055    3.6237   49.6068 C.ar    1  ZINC000600609084   -0.1200
     30 C30       -10.0330    4.3501   49.5130 C.ar    1  ZINC000600609084   -0.1200
     31 C31        -9.1892    4.4441   50.6039 C.ar    1  ZINC000600609084   -0.1200
     32 C32        -9.5197    3.8152   51.7896 C.ar    1  ZINC000600609084   -0.1100
     33 H33        -6.3347   -0.5483   51.5408 H       1  ZINC000600609084    0.1000
     34 H34        -7.0286    0.8416   50.6720 H       1  ZINC000600609084    0.1000
     35 H35        -6.0900    1.2990   53.4859 H       1  ZINC000600609084    0.0900
     36 H36        -4.8456    1.0811   52.2320 H       1  ZINC000600609084    0.0800
     37 H37        -6.7448    3.3058   52.4163 H       1  ZINC000600609084    0.4200
     38 H38        -3.7607    4.5170   52.8135 H       1  ZINC000600609084    0.1400
     39 H39        -1.4104    4.4295   53.4482 H       1  ZINC000600609084    0.1400
     40 H40         0.8835    3.5918   53.0128 H       1  ZINC000600609084    0.1300
     41 H41         2.4010    2.2672   51.6437 H       1  ZINC000600609084    0.1300
     42 H42         1.5823    1.0505   49.6717 H       1  ZINC000600609084    0.1300
     43 H43        -0.7675    1.1387   49.0366 H       1  ZINC000600609084    0.1300
     44 H44        -3.0631    1.9674   49.4786 H       1  ZINC000600609084    0.1500
     45 H45        -8.6177    2.2082   52.3404 H       1  ZINC000600609084    0.4000
     46 H46       -10.2119    0.1906   55.3401 H       1  ZINC000600609084    0.0800
     47 H47        -8.7726    1.2202   55.0969 H       1  ZINC000600609084    0.0700
     48 H48       -11.5646    2.0046   55.9254 H       1  ZINC000600609084    0.0700
     49 H49        -9.9972    2.7619   56.3494 H       1  ZINC000600609084    0.0700
     50 H50       -11.6011    3.9907   54.5642 H       1  ZINC000600609084    0.0700
     51 H51        -9.8420    3.8891   54.2234 H       1  ZINC000600609084    0.0700
     52 H52       -12.4498    2.4238   50.8645 H       1  ZINC000600609084    0.1200
     53 H53       -11.8648    3.5502   48.7546 H       1  ZINC000600609084    0.1200
     54 H54        -9.7761    4.8436   48.5874 H       1  ZINC000600609084    0.1200
     55 H55        -8.2730    5.0112   50.5305 H       1  ZINC000600609084    0.1200
     56 H56        -8.8603    3.8886   52.6418 H       1  ZINC000600609084    0.1200
@<TRIPOS>BOND
     1     1     2    2
     2     2     3    1
     3     2    19   am
     4     3     4    1
     5     3    33    1
     6     3    34    1
     7     4     5    1
     8     4    35    1
     9     4    36    1
    10     5     6   am
    11     5    37    1
    12     6     7    2
    13     6     8    2
    14     6     9    1
    15     9    18   ar
    16     9    10   ar
    17    10    11   ar
    18    10    38    1
    19    11    12   ar
    20    11    39    1
    21    12    17   ar
    22    12    13   ar
    23    13    14   ar
    24    13    40    1
    25    14    15   ar
    26    14    41    1
    27    15    16   ar
    28    15    42    1
    29    16    17   ar
    30    16    43    1
    31    17    18   ar
    32    18    44    1
    33    19    20    1
    34    19    45    1
    35    20    21    1
    36    20    25    1
    37    20    22    1
    38    22    23    1
    39    22    46    1
    40    22    47    1
    41    23    24    1
    42    23    48    1
    43    23    49    1
    44    24    25    1
    45    24    50    1
    46    24    51    1
    47    25    26    1
    48    25    27    1
    49    27    32   ar
    50    27    28   ar
    51    28    29   ar
    52    28    52    1
    53    29    30   ar
    54    29    53    1
    55    30    31   ar
    56    30    54    1
    57    31    32   ar
    58    31    55    1
    59    32    56    1
@<TRIPOS>SUBSTRUCTURE
     1 ZINC000600609084        1 TEMP              0 ****  ****    0 ROOT


##########                                Name:    ZINC000766421809
##########                DOCK_Rotatable_Bonds:                   7
##########                         Heavy_Atoms:                  26
##########                    Molecular_Weight:             358.372
##########                DOCK_Rotatable_Bonds:                   7
##########                       Formal_Charge:         4.61936e-07
##########                     HBond_Acceptors:                   8
##########                        HBond_Donors:                   0
##########                         Heavy_Atoms:                  26
##########                          Grid_Score:          -34.661022
##########                     Grid_vdw_energy:          -34.876026
##########                      Grid_es_energy:            0.215006
##########           Internal_energy_repulsive:            9.517901

@<TRIPOS>MOLECULE
ZINC000766421809
 45 47 1 0 0
SMALL
USER_CHARGES


@<TRIPOS>ATOM
      1 C1        -10.6433   -3.0171   58.1429 C.3     1  ZINC000766421809   -0.0700
      2 C2        -11.7131   -2.3259   57.3373 C.2     1  ZINC000766421809    0.0700
      3 N3        -12.9480   -2.7333   57.1926 N.2     1  ZINC000766421809   -0.2900
      4 N4        -13.6182   -1.8160   56.3730 N.pl3   1  ZINC000766421809   -0.3700
      5 C5        -15.0212   -1.8950   55.9588 C.3     1  ZINC000766421809    0.1000
      6 C6        -12.7433   -0.8466   56.0325 C.2     1  ZINC000766421809    0.0700
      7 C7        -13.0345    0.3465   55.1592 C.3     1  ZINC000766421809    0.1400
      8 O8        -11.7981    0.8287   54.5704 O.3     1  ZINC000766421809   -0.3400
      9 C9        -11.1799    0.0152   53.6997 C.2     1  ZINC000766421809    0.4700
     10 O10       -11.6619   -1.0594   53.4301 O.2     1  ZINC000766421809   -0.5000
     11 C11        -9.8848    0.4424   53.0586 C.3     1  ZINC000766421809   -0.1100
     12 C12        -9.0830   -0.7964   52.6541 C.3     1  ZINC000766421809   -0.0200
     13 C13        -7.6928   -0.3834   52.2445 C.2     1  ZINC000766421809    0.1900
     14 N14        -7.1291    0.7778   52.4667 N.2     1  ZINC000766421809   -0.4700
     15 C15        -5.8930    0.6911   51.9251 C.2     1  ZINC000766421809    0.2200
     16 C16        -4.8584    1.7547   51.9163 C.ar    1  ZINC000766421809   -0.0300
     17 C17        -5.1147    2.9835   52.5213 C.ar    1  ZINC000766421809   -0.0500
     18 C18        -4.1497    3.9697   52.5113 C.ar    1  ZINC000766421809   -0.1500
     19 C19        -2.9277    3.7396   51.9004 C.ar    1  ZINC000766421809    0.1200
     20 F20        -1.9857    4.7081   51.8924 F       1  ZINC000766421809   -0.1300
     21 C21        -2.6686    2.5188   51.2979 C.ar    1  ZINC000766421809   -0.1200
     22 C22        -1.3371    2.2740   50.6358 C.3     1  ZINC000766421809   -0.1200
     23 C23        -3.6257    1.5255   51.3079 C.ar    1  ZINC000766421809   -0.0600
     24 N24        -5.7800   -0.5062   51.4110 N.2     1  ZINC000766421809   -0.3700
     25 O25        -6.8012   -1.1352   51.5914 O.3     1  ZINC000766421809    0.0900
     26 C26       -11.5590   -1.1350   56.6202 C.2     1  ZINC000766421809   -0.2400
     27 H27       -10.6645   -2.6473   59.1680 H       1  ZINC000766421809    0.0800
     28 H28       -10.8242   -4.0920   58.1406 H       1  ZINC000766421809    0.0700
     29 H29        -9.6675   -2.8119   57.7027 H       1  ZINC000766421809    0.0800
     30 H30       -15.6446   -1.3749   56.6860 H       1  ZINC000766421809    0.0800
     31 H31       -15.1380   -1.4286   54.9804 H       1  ZINC000766421809    0.0900
     32 H32       -15.3248   -2.9403   55.9015 H       1  ZINC000766421809    0.0900
     33 H33       -13.7255    0.0571   54.3674 H       1  ZINC000766421809    0.0900
     34 H34       -13.4827    1.1367   55.7615 H       1  ZINC000766421809    0.0900
     35 H35       -10.0977    1.0421   52.1737 H       1  ZINC000766421809    0.1200
     36 H36        -9.3060    1.0340   53.7678 H       1  ZINC000766421809    0.1200
     37 H37        -9.0241   -1.4828   53.4987 H       1  ZINC000766421809    0.1200
     38 H38        -9.5763   -1.2913   51.8175 H       1  ZINC000766421809    0.1200
     39 H39        -6.0673    3.1638   52.9972 H       1  ZINC000766421809    0.1500
     40 H40        -4.3475    4.9224   52.9800 H       1  ZINC000766421809    0.1500
     41 H41        -0.6408    1.8569   51.3632 H       1  ZINC000766421809    0.0800
     42 H42        -1.4647    1.5725   49.8114 H       1  ZINC000766421809    0.0800
     43 H43        -0.9427    3.2157   50.2539 H       1  ZINC000766421809    0.0700
     44 H44        -3.4229    0.5744   50.8382 H       1  ZINC000766421809    0.1400
     45 H45       -10.6531   -0.5518   56.5439 H       1  ZINC000766421809    0.1500
@<TRIPOS>BOND
     1     1     2    1
     2     1    27    1
     3     1    28    1
     4     1    29    1
     5     2    26    1
     6     2     3    2
     7     3     4    1
     8     4     5    1
     9     4     6    1
    10     5    30    1
    11     5    31    1
    12     5    32    1
    13     6     7    1
    14     6    26    2
    15     7     8    1
    16     7    33    1
    17     7    34    1
    18     8     9    1
    19     9    10    2
    20     9    11    1
    21    11    12    1
    22    11    35    1
    23    11    36    1
    24    12    13    1
    25    12    37    1
    26    12    38    1
    27    13    25    1
    28    13    14    2
    29    14    15    1
    30    15    16    1
    31    15    24    2
    32    16    23   ar
    33    16    17   ar
    34    17    18   ar
    35    17    39    1
    36    18    19   ar
    37    18    40    1
    38    19    20    1
    39    19    21   ar
    40    21    22    1
    41    21    23   ar
    42    22    41    1
    43    22    42    1
    44    22    43    1
    45    23    44    1
    46    24    25    1
    47    26    45    1
@<TRIPOS>SUBSTRUCTURE
     1 ZINC000766421809        1 TEMP              0 ****  ****    0 ROOT


##########                                Name:    ZINC000489986384
##########                DOCK_Rotatable_Bonds:                  11
##########                         Heavy_Atoms:                  31
##########                    Molecular_Weight:             415.492
##########                DOCK_Rotatable_Bonds:                  11
##########                       Formal_Charge:          -0.0499997
##########                     HBond_Acceptors:                   6
##########                        HBond_Donors:                   2
##########                         Heavy_Atoms:                  31
##########                          Grid_Score:          -34.659439
##########                     Grid_vdw_energy:          -34.201492
##########                      Grid_es_energy:           -0.457946
##########           Internal_energy_repulsive:           13.229692

@<TRIPOS>MOLECULE
ZINC000489986384
 56 59 1 0 0
SMALL
USER_CHARGES


@<TRIPOS>ATOM
      1 O1         -5.3944    4.2361   55.2359 O.2     1  ZINC000489986384   -0.5000
      2 C2         -4.6008    4.1880   54.3199 C.2     1  ZINC000489986384    0.4900
      3 C3         -5.0947    4.0988   52.8990 C.3     1  ZINC000489986384    0.0900
      4 N4         -5.1414    2.6942   52.4855 N.pl3   1  ZINC000489986384   -0.4700
      5 C5         -6.2393    1.8593   52.5461 C.ar    1  ZINC000489986384    0.0700
      6 C6         -7.5513    2.0170   52.9704 C.ar    1  ZINC000489986384   -0.1100
      7 C7         -8.4252    0.9528   52.8976 C.ar    1  ZINC000489986384   -0.0900
      8 C8         -8.0013   -0.2726   52.4042 C.ar    1  ZINC000489986384   -0.1300
      9 C9         -6.7134   -0.4464   51.9826 C.ar    1  ZINC000489986384   -0.0600
     10 C10        -5.8105    0.6178   52.0461 C.ar    1  ZINC000489986384    0.0500
     11 N11        -4.5013    0.7564   51.7136 N.2     1  ZINC000489986384   -0.4600
     12 C12        -4.1125    1.9723   51.9648 C.2     1  ZINC000489986384    0.2800
     13 C13        -2.7218    2.5009   51.7249 C.3     1  ZINC000489986384    0.1400
     14 O14        -2.1210    1.7870   50.6425 O.3     1  ZINC000489986384   -0.3000
     15 C15        -0.8498    2.1308   50.3068 C.ar    1  ZINC000489986384    0.1300
     16 C16        -0.2754    1.6241   49.1502 C.ar    1  ZINC000489986384   -0.2100
     17 C17         1.0168    1.9755   48.8109 C.ar    1  ZINC000489986384   -0.0800
     18 C18         1.7378    2.8311   49.6233 C.ar    1  ZINC000489986384   -0.1600
     19 C19         1.1678    3.3370   50.7768 C.ar    1  ZINC000489986384   -0.0800
     20 C20        -0.1263    2.9936   51.1173 C.ar    1  ZINC000489986384   -0.1500
     21 N21        -3.2773    4.2201   54.5725 N.am    1  ZINC000489986384   -0.7300
     22 C22        -2.7972    4.3068   55.9538 C.3     1  ZINC000489986384    0.1300
     23 C23        -1.3753    3.7479   56.0355 C.3     1  ZINC000489986384   -0.0600
     24 H24        -1.3426    2.7669   55.5614 H       1  ZINC000489986384    0.0900
     25 C25        -0.4130    4.6945   55.3155 C.3     1  ZINC000489986384    0.0800
     26 O26         0.9264    4.2211   55.4708 O.3     1  ZINC000489986384   -0.5700
     27 C27        -0.9677    3.6210   57.4808 C.ar    1  ZINC000489986384   -0.0700
     28 C28        -0.3730    2.4575   57.9316 C.ar    1  ZINC000489986384   -0.1100
     29 C29         0.0009    2.3411   59.2574 C.ar    1  ZINC000489986384   -0.1200
     30 C30        -0.2196    3.3884   60.1322 C.ar    1  ZINC000489986384   -0.1200
     31 C31        -0.8136    4.5524   59.6812 C.ar    1  ZINC000489986384   -0.1200
     32 C32        -1.1835    4.6704   58.3545 C.ar    1  ZINC000489986384   -0.1100
     33 H33        -6.0938    4.5301   52.8337 H       1  ZINC000489986384    0.1200
     34 H34        -4.4185    4.6481   52.2440 H       1  ZINC000489986384    0.1200
     35 H35        -7.8862    2.9686   53.3559 H       1  ZINC000489986384    0.1200
     36 H36        -9.4464    1.0740   53.2274 H       1  ZINC000489986384    0.1300
     37 H37        -8.6964   -1.0977   52.3533 H       1  ZINC000489986384    0.1300
     38 H38        -6.3937   -1.4049   51.6010 H       1  ZINC000489986384    0.1300
     39 H39        -2.7738    3.5609   51.4767 H       1  ZINC000489986384    0.0800
     40 H40        -2.1220    2.3676   52.6253 H       1  ZINC000489986384    0.1000
     41 H41        -0.8379    0.9552   48.5157 H       1  ZINC000489986384    0.1300
     42 H42         1.4644    1.5813   47.9105 H       1  ZINC000489986384    0.1300
     43 H43         2.7480    3.1043   49.3564 H       1  ZINC000489986384    0.1200
     44 H44         1.7331    4.0050   51.4099 H       1  ZINC000489986384    0.1300
     45 H45        -0.5711    3.3892   52.0185 H       1  ZINC000489986384    0.1300
     46 H46        -2.6427    4.1856   53.8396 H       1  ZINC000489986384    0.4000
     47 H47        -2.7968    5.3488   56.2736 H       1  ZINC000489986384    0.0800
     48 H48        -3.4531    3.7275   56.6036 H       1  ZINC000489986384    0.0800
     49 H49        -0.6646    4.7315   54.2556 H       1  ZINC000489986384    0.0500
     50 H50        -0.4972    5.6933   55.7438 H       1  ZINC000489986384    0.0500
     51 H51         1.0748    3.3357   55.1113 H       1  ZINC000489986384    0.3800
     52 H52        -0.2007    1.6392   57.2482 H       1  ZINC000489986384    0.1200
     53 H53         0.4649    1.4318   59.6097 H       1  ZINC000489986384    0.1200
     54 H54         0.0719    3.2973   61.1681 H       1  ZINC000489986384    0.1200
     55 H55        -0.9861    5.3705   60.3647 H       1  ZINC000489986384    0.1200
     56 H56        -1.6475    5.5797   58.0021 H       1  ZINC000489986384    0.1200
@<TRIPOS>BOND
     1     1     2    2
     2     2     3    1
     3     2    21   am
     4     3     4    1
     5     3    33    1
     6     3    34    1
     7     4    12    1
     8     4     5    1
     9     5    10   ar
    10     5     6   ar
    11     6     7   ar
    12     6    35    1
    13     7     8   ar
    14     7    36    1
    15     8     9   ar
    16     8    37    1
    17     9    10   ar
    18     9    38    1
    19    10    11    1
    20    11    12    2
    21    12    13    1
    22    13    14    1
    23    13    39    1
    24    13    40    1
    25    14    15    1
    26    15    20   ar
    27    15    16   ar
    28    16    17   ar
    29    16    41    1
    30    17    18   ar
    31    17    42    1
    32    18    19   ar
    33    18    43    1
    34    19    20   ar
    35    19    44    1
    36    20    45    1
    37    21    22    1
    38    21    46    1
    39    22    23    1
    40    22    47    1
    41    22    48    1
    42    23    24    1
    43    23    25    1
    44    23    27    1
    45    25    26    1
    46    25    49    1
    47    25    50    1
    48    26    51    1
    49    27    32   ar
    50    27    28   ar
    51    28    29   ar
    52    28    52    1
    53    29    30   ar
    54    29    53    1
    55    30    31   ar
    56    30    54    1
    57    31    32   ar
    58    31    55    1
    59    32    56    1
@<TRIPOS>SUBSTRUCTURE
     1 ZINC000489986384        1 TEMP              0 ****  ****    0 ROOT


##########                                Name:    ZINC000298969660
##########                DOCK_Rotatable_Bonds:                  10
##########                         Heavy_Atoms:                  29
##########                    Molecular_Weight:             397.474
##########                DOCK_Rotatable_Bonds:                  10
##########                       Formal_Charge:          -0.0100008
##########                     HBond_Acceptors:                   7
##########                        HBond_Donors:                   2
##########                         Heavy_Atoms:                  29
##########                          Grid_Score:          -34.647888
##########                     Grid_vdw_energy:          -34.162518
##########                      Grid_es_energy:           -0.485370
##########           Internal_energy_repulsive:          165.359879

@<TRIPOS>MOLECULE
ZINC000298969660
 56 58 1 0 0
SMALL
USER_CHARGES


@<TRIPOS>ATOM
      1 C1          0.6296    2.9579   52.1421 C.3     1  ZINC000298969660    0.0800
      2 N2          0.1486    2.4532   50.8536 N.am    1  ZINC000298969660   -0.6300
      3 C3          1.1057    2.0057   49.8389 C.3     1  ZINC000298969660    0.1400
      4 C4          2.3081    2.9516   49.8194 C.3     1  ZINC000298969660    0.0700
      5 H5          2.7096    3.0499   50.8279 H       1  ZINC000298969660    0.0500
      6 C6          1.8681    4.3262   49.3087 C.3     1  ZINC000298969660   -0.1500
      7 C7          3.0881    5.2494   49.2351 C.3     1  ZINC000298969660   -0.1200
      8 C8          4.1475    4.6066   48.3346 C.3     1  ZINC000298969660   -0.1600
      9 C9          4.4994    3.2211   48.8828 C.3     1  ZINC000298969660    0.0600
     10 O10         3.3158    2.4237   48.9545 O.3     1  ZINC000298969660   -0.3600
     11 C11        -1.1744    2.4008   50.6019 C.2     1  ZINC000298969660    0.7100
     12 O12        -1.5736    1.9806   49.5331 O.2     1  ZINC000298969660   -0.5400
     13 N13        -2.0548    2.8141   51.5349 N.am    1  ZINC000298969660   -0.6900
     14 C14        -3.4285    2.7596   51.2735 C.ar    1  ZINC000298969660    0.2000
     15 C15        -4.1426    3.9313   51.0596 C.ar    1  ZINC000298969660   -0.1800
     16 C16        -5.4990    3.8776   50.8020 C.ar    1  ZINC000298969660   -0.0600
     17 C17        -6.1482    2.6588   50.7562 C.ar    1  ZINC000298969660   -0.2300
     18 C18        -5.4395    1.4844   50.9692 C.ar    1  ZINC000298969660    0.1500
     19 O19        -6.0796    0.2865   50.9242 O.3     1  ZINC000298969660   -0.2900
     20 C20        -6.2976   -0.3799   52.1694 C.3     1  ZINC000298969660    0.0400
     21 C21        -7.5468    0.1605   52.8164 C.2     1  ZINC000298969660    0.5100
     22 O22        -7.4653    1.0182   53.6700 O.2     1  ZINC000298969660   -0.4900
     23 N23        -8.7545   -0.3094   52.4463 N.am    1  ZINC000298969660   -0.6700
     24 C24        -9.9145    0.1923   53.0470 C.ar    1  ZINC000298969660    0.1400
     25 C25        -9.8233    1.1791   54.0198 C.ar    1  ZINC000298969660   -0.1400
     26 C26       -10.9700    1.6722   54.6108 C.ar    1  ZINC000298969660   -0.1000
     27 C27       -12.2080    1.1839   54.2353 C.ar    1  ZINC000298969660   -0.1300
     28 C28       -12.3022    0.2009   53.2672 C.ar    1  ZINC000298969660   -0.1000
     29 C29       -11.1596   -0.2916   52.6676 C.ar    1  ZINC000298969660   -0.1200
     30 C30        -4.0779    1.5340   51.2222 C.ar    1  ZINC000298969660   -0.1500
     31 H31         0.7847    4.0348   52.0756 H       1  ZINC000298969660    0.0600
     32 H32        -0.1091    2.7442   52.9147 H       1  ZINC000298969660    0.0700
     33 H33         1.5711    2.4702   52.3948 H       1  ZINC000298969660    0.0800
     34 H34         1.4414    0.9961   50.0763 H       1  ZINC000298969660    0.1000
     35 H35         0.6257    2.0081   48.8603 H       1  ZINC000298969660    0.0900
     36 H36         1.4291    4.2228   48.3164 H       1  ZINC000298969660    0.0800
     37 H37         1.1315    4.7497   49.9916 H       1  ZINC000298969660    0.0700
     38 H38         2.7920    6.2126   48.8194 H       1  ZINC000298969660    0.0700
     39 H39         3.4979    5.3928   50.2349 H       1  ZINC000298969660    0.0600
     40 H40         3.7546    4.5088   47.3226 H       1  ZINC000298969660    0.0700
     41 H41         5.0411    5.2306   48.3207 H       1  ZINC000298969660    0.0700
     42 H42         5.2215    2.7414   48.2221 H       1  ZINC000298969660    0.0900
     43 H43         4.9299    3.3231   49.8791 H       1  ZINC000298969660    0.0400
     44 H44        -1.7363    3.1493   52.3876 H       1  ZINC000298969660    0.4100
     45 H45        -3.6374    4.8853   51.0949 H       1  ZINC000298969660    0.1300
     46 H46        -6.0528    4.7898   50.6365 H       1  ZINC000298969660    0.1300
     47 H47        -7.2086    2.6198   50.5546 H       1  ZINC000298969660    0.1300
     48 H48        -6.4127   -1.4494   51.9939 H       1  ZINC000298969660    0.1000
     49 H49        -5.4450   -0.2093   52.8268 H       1  ZINC000298969660    0.1000
     50 H50        -8.8197   -0.9953   51.7637 H       1  ZINC000298969660    0.4100
     51 H51        -8.8566    1.5603   54.3141 H       1  ZINC000298969660    0.1300
     52 H52       -10.8997    2.4397   55.3674 H       1  ZINC000298969660    0.1300
     53 H53       -13.1033    1.5708   54.6992 H       1  ZINC000298969660    0.1200
     54 H54       -13.2705   -0.1789   52.9765 H       1  ZINC000298969660    0.1300
     55 H55       -11.2338   -1.0594   51.9117 H       1  ZINC000298969660    0.1300
     56 H56        -3.5249    0.6214   51.3882 H       1  ZINC000298969660    0.1500
@<TRIPOS>BOND
     1     1     2    1
     2     1    31    1
     3     1    32    1
     4     1    33    1
     5     2     3    1
     6     2    11   am
     7     3     4    1
     8     3    34    1
     9     3    35    1
    10     4     5    1
    11     4    10    1
    12     4     6    1
    13     6     7    1
    14     6    36    1
    15     6    37    1
    16     7     8    1
    17     7    38    1
    18     7    39    1
    19     8     9    1
    20     8    40    1
    21     8    41    1
    22     9    10    1
    23     9    42    1
    24     9    43    1
    25    11    12    2
    26    11    13   am
    27    13    14    1
    28    13    44    1
    29    14    30   ar
    30    14    15   ar
    31    15    16   ar
    32    15    45    1
    33    16    17   ar
    34    16    46    1
    35    17    18   ar
    36    17    47    1
    37    18    19    1
    38    18    30   ar
    39    19    20    1
    40    20    21    1
    41    20    48    1
    42    20    49    1
    43    21    22    2
    44    21    23   am
    45    23    24    1
    46    23    50    1
    47    24    29   ar
    48    24    25   ar
    49    25    26   ar
    50    25    51    1
    51    26    27   ar
    52    26    52    1
    53    27    28   ar
    54    27    53    1
    55    28    29   ar
    56    28    54    1
    57    29    55    1
    58    30    56    1
@<TRIPOS>SUBSTRUCTURE
     1 ZINC000298969660        1 TEMP              0 ****  ****    0 ROOT


##########                                Name:    ZINC001181473921
##########                DOCK_Rotatable_Bonds:                   9
##########                         Heavy_Atoms:                  24
##########                    Molecular_Weight:             357.431
##########                DOCK_Rotatable_Bonds:                   9
##########                       Formal_Charge:        -5.96046e-08
##########                     HBond_Acceptors:                   9
##########                        HBond_Donors:                   4
##########                         Heavy_Atoms:                  24
##########                          Grid_Score:          -34.626263
##########                     Grid_vdw_energy:          -32.266514
##########                      Grid_es_energy:           -2.359750
##########           Internal_energy_repulsive:           14.629462

@<TRIPOS>MOLECULE
ZINC001181473921
 47 48 1 0 0
SMALL
USER_CHARGES


@<TRIPOS>ATOM
      1 C1         -1.3158    3.7254   53.0317 C.3     1  ZINC001181473921   -0.1300
      2 C2         -0.6215    3.0077   51.9031 C.2     1  ZINC001181473921    0.1900
      3 C3          0.7124    2.8069   51.9618 C.2     1  ZINC001181473921   -0.2400
      4 C4          1.3670    2.1360   50.9097 C.2     1  ZINC001181473921    0.2500
      5 O5          2.7045    1.9265   50.9542 O.3     1  ZINC001181473921   -0.4600
      6 C6          0.6228    1.6945   49.8313 C.2     1  ZINC001181473921   -0.3700
      7 C7         -0.7575    1.9261   49.8156 C.2     1  ZINC001181473921    0.5300
      8 O8         -1.4290    1.5421   48.8706 O.2     1  ZINC001181473921   -0.5500
      9 N9         -1.3471    2.5663   50.8423 N.am    1  ZINC001181473921   -0.5000
     10 C10        -2.7930    2.8004   50.8107 C.3     1  ZINC001181473921    0.1000
     11 C11        -3.5189    1.5874   51.3958 C.3     1  ZINC001181473921   -0.1600
     12 C12        -5.0080    1.7995   51.3015 C.2     1  ZINC001181473921    0.5200
     13 O13        -5.5936    1.5388   50.2718 O.2     1  ZINC001181473921   -0.5300
     14 N14        -5.6890    2.2787   52.3612 N.am    1  ZINC001181473921   -0.7200
     15 C15        -7.1362    2.4865   52.2689 C.3     1  ZINC001181473921    0.1400
     16 H16        -7.4096    2.8563   51.2806 H       1  ZINC001181473921    0.1000
     17 C17        -7.6227    3.4582   53.3726 C.3     1  ZINC001181473921   -0.1300
     18 C18        -9.1154    3.1116   53.5506 C.3     1  ZINC001181473921   -0.1500
     19 C19        -9.2920    1.6637   53.0605 C.3     1  ZINC001181473921   -0.0800
     20 H20        -9.9914    1.6351   52.2249 H       1  ZINC001181473921    0.0900
     21 C21        -9.8035    0.7827   54.2020 C.3     1  ZINC001181473921   -0.6200
     22 S22       -10.2213   -0.8605   53.5571 S.o2    1  ZINC001181473921    2.6100
     23 N23       -11.5329   -0.5998   52.5804 N.am    1  ZINC001181473921   -1.2500
     24 O24        -9.2101   -1.3203   52.6708 O.2     1  ZINC001181473921   -0.9600
     25 O25       -10.7181   -1.6924   54.5964 O.2     1  ZINC001181473921   -0.9600
     26 C26        -7.9003    1.1796   52.5967 C.3     1  ZINC001181473921   -0.1200
     27 H27        -2.1228    3.1019   53.4168 H       1  ZINC001181473921    0.0900
     28 H28        -0.6003    3.9268   53.8289 H       1  ZINC001181473921    0.1000
     29 H29        -1.7265    4.6663   52.6659 H       1  ZINC001181473921    0.0900
     30 H30         1.2761    3.1598   52.8128 H       1  ZINC001181473921    0.1500
     31 H31         3.1380    2.3158   51.7259 H       1  ZINC001181473921    0.4100
     32 H32         1.1003    1.1779   49.0118 H       1  ZINC001181473921    0.1500
     33 H33        -3.0307    3.6855   51.4007 H       1  ZINC001181473921    0.1000
     34 H34        -3.1138    2.9537   49.7803 H       1  ZINC001181473921    0.1100
     35 H35        -3.2431    0.6938   50.8358 H       1  ZINC001181473921    0.1100
     36 H36        -3.2352    1.4634   52.4408 H       1  ZINC001181473921    0.1000
     37 H37        -5.2208    2.4860   53.1850 H       1  ZINC001181473921    0.4000
     38 H38        -7.0776    3.2853   54.3005 H       1  ZINC001181473921    0.0700
     39 H39        -7.5073    4.4924   53.0483 H       1  ZINC001181473921    0.0800
     40 H40        -9.3933    3.1864   54.6019 H       1  ZINC001181473921    0.0900
     41 H41        -9.7291    3.7856   52.9529 H       1  ZINC001181473921    0.0800
     42 H42        -9.0289    0.6882   54.9631 H       1  ZINC001181473921    0.1400
     43 H43       -10.6915    1.2370   54.6416 H       1  ZINC001181473921    0.1400
     44 H44       -12.3467   -0.2241   52.9511 H       1  ZINC001181473921    0.4100
     45 H45       -11.4874   -0.8228   51.6374 H       1  ZINC001181473921    0.4200
     46 H46        -7.9907    0.5521   51.7101 H       1  ZINC001181473921    0.0800
     47 H47        -7.3979    0.6387   53.3986 H       1  ZINC001181473921    0.0800
@<TRIPOS>BOND
     1     1     2    1
     2     1    27    1
     3     1    28    1
     4     1    29    1
     5     2     9    1
     6     2     3    2
     7     3     4    1
     8     3    30    1
     9     4     5    1
    10     4     6    2
    11     5    31    1
    12     6     7    1
    13     6    32    1
    14     7     8    2
    15     7     9   am
    16     9    10    1
    17    10    11    1
    18    10    33    1
    19    10    34    1
    20    11    12    1
    21    11    35    1
    22    11    36    1
    23    12    13    2
    24    12    14   am
    25    14    15    1
    26    14    37    1
    27    15    16    1
    28    15    26    1
    29    15    17    1
    30    17    18    1
    31    17    38    1
    32    17    39    1
    33    18    19    1
    34    18    40    1
    35    18    41    1
    36    19    20    1
    37    19    21    1
    38    19    26    1
    39    21    22    1
    40    21    42    1
    41    21    43    1
    42    22    23   am
    43    22    24    2
    44    22    25    2
    45    23    44    1
    46    23    45    1
    47    26    46    1
    48    26    47    1
@<TRIPOS>SUBSTRUCTURE
     1 ZINC001181473921        1 TEMP              0 ****  ****    0 ROOT


##########                                Name:    ZINC000124554441
##########                DOCK_Rotatable_Bonds:                   9
##########                         Heavy_Atoms:                  26
##########                    Molecular_Weight:             375.898
##########                DOCK_Rotatable_Bonds:                   9
##########                       Formal_Charge:         -0.00999991
##########                     HBond_Acceptors:                   6
##########                        HBond_Donors:                   1
##########                         Heavy_Atoms:                  26
##########                          Grid_Score:          -34.608196
##########                     Grid_vdw_energy:          -32.213245
##########                      Grid_es_energy:           -2.394950
##########           Internal_energy_repulsive:           17.665197

@<TRIPOS>MOLECULE
ZINC000124554441
 52 53 1 0 0
SMALL
USER_CHARGES


@<TRIPOS>ATOM
      1 C1          1.3007    1.6200   60.8800 C.3     1  ZINC000124554441   -0.1500
      2 C2          0.7032    2.6563   59.9260 C.3     1  ZINC000124554441   -0.1300
      3 C3          0.9252    2.2065   58.4806 C.3     1  ZINC000124554441   -0.1200
      4 C4          0.3265    3.2421   57.5266 C.3     1  ZINC000124554441   -0.1200
      5 C5         -1.1703    3.3890   57.8073 C.3     1  ZINC000124554441   -0.1300
      6 C6         -1.7800    4.3824   56.8162 C.3     1  ZINC000124554441    0.1200
      7 N7         -1.5291    3.9233   55.4478 N.am    1  ZINC000124554441   -0.7300
      8 C8         -1.5320    4.8063   54.4295 C.2     1  ZINC000124554441    0.5200
      9 O9         -1.7437    5.9807   54.6459 O.2     1  ZINC000124554441   -0.5300
     10 C10        -1.2722    4.3343   53.0221 C.3     1  ZINC000124554441   -0.1200
     11 H11        -1.6833    5.0547   52.3151 H       1  ZINC000124554441    0.1000
     12 C12         0.2359    4.2021   52.7980 C.3     1  ZINC000124554441   -0.1000
     13 C13         0.5022    3.7543   51.3591 C.3     1  ZINC000124554441   -0.1400
     14 C14        -0.1429    2.3844   51.1271 C.3     1  ZINC000124554441    0.0900
     15 N15        -1.5669    2.4665   51.4798 N.am    1  ZINC000124554441   -0.6000
     16 C16        -2.5151    2.0860   50.6009 C.2     1  ZINC000124554441    0.5600
     17 O17        -2.1957    1.6701   49.5044 O.2     1  ZINC000124554441   -0.5200
     18 C18        -3.9446    2.1746   50.9707 C.ar    1  ZINC000124554441   -0.0900
     19 C19        -4.6197    3.3918   50.8609 C.ar    1  ZINC000124554441   -0.0900
     20 C20        -5.9506    3.4756   51.2049 C.ar    1  ZINC000124554441   -0.0600
     21 C21        -6.6260    2.3428   51.6643 C.ar    1  ZINC000124554441    0.0100
     22 C22        -8.0099    2.4297   52.0221 C.1     1  ZINC000124554441    0.2400
     23 N23        -9.1078    2.4988   52.3058 N.1     1  ZINC000124554441   -0.3800
     24 C24        -5.9504    1.1236   51.7745 C.ar    1  ZINC000124554441    0.0000
     25 Cl25       -6.7888   -0.2855   52.3450 Cl      1  ZINC000124554441   -0.0400
     26 C26        -4.6196    1.0398   51.4240 C.ar    1  ZINC000124554441   -0.0600
     27 C27        -1.9381    2.9713   52.8088 C.3     1  ZINC000124554441    0.1200
     28 H28         0.8156    0.6570   60.7205 H       1  ZINC000124554441    0.0500
     29 H29         2.3696    1.5244   60.6893 H       1  ZINC000124554441    0.0500
     30 H30         1.1425    1.9404   61.9097 H       1  ZINC000124554441    0.0500
     31 H31        -0.3658    2.7519   60.1166 H       1  ZINC000124554441    0.0600
     32 H32         1.1883    3.6193   60.0855 H       1  ZINC000124554441    0.0600
     33 H33         1.9941    2.1118   58.2896 H       1  ZINC000124554441    0.0600
     34 H34         0.4409    1.2431   58.3213 H       1  ZINC000124554441    0.0600
     35 H35         0.8202    4.2024   57.6764 H       1  ZINC000124554441    0.0700
     36 H36         0.4728    2.9151   56.4971 H       1  ZINC000124554441    0.0700
     37 H37        -1.6575    2.4202   57.6966 H       1  ZINC000124554441    0.0700
     38 H38        -1.3152    3.7546   58.8238 H       1  ZINC000124554441    0.0700
     39 H39        -2.8547    4.4509   56.9852 H       1  ZINC000124554441    0.0700
     40 H40        -1.3265    5.3632   56.9593 H       1  ZINC000124554441    0.0700
     41 H41        -1.3610    2.9838   55.2746 H       1  ZINC000124554441    0.4000
     42 H42         0.7149    5.1654   52.9732 H       1  ZINC000124554441    0.0800
     43 H43         0.6425    3.4637   53.4892 H       1  ZINC000124554441    0.0800
     44 H44         0.0743    4.4799   50.6672 H       1  ZINC000124554441    0.0700
     45 H45         1.5772    3.6829   51.1933 H       1  ZINC000124554441    0.0900
     46 H46        -0.0418    2.1058   50.0781 H       1  ZINC000124554441    0.1000
     47 H47         0.3465    1.6392   51.7541 H       1  ZINC000124554441    0.0800
     48 H48        -4.0977    4.2683   50.5063 H       1  ZINC000124554441    0.1500
     49 H49        -6.4720    4.4175   51.1196 H       1  ZINC000124554441    0.1500
     50 H50        -4.0971    0.0985   51.5087 H       1  ZINC000124554441    0.1500
     51 H51        -1.5953    2.2742   53.5734 H       1  ZINC000124554441    0.0800
     52 H52        -3.0211    3.0794   52.8692 H       1  ZINC000124554441    0.1000
@<TRIPOS>BOND
     1     1     2    1
     2     1    28    1
     3     1    29    1
     4     1    30    1
     5     2     3    1
     6     2    31    1
     7     2    32    1
     8     3     4    1
     9     3    33    1
    10     3    34    1
    11     4     5    1
    12     4    35    1
    13     4    36    1
    14     5     6    1
    15     5    37    1
    16     5    38    1
    17     6     7    1
    18     6    39    1
    19     6    40    1
    20     7     8   am
    21     7    41    1
    22     8     9    2
    23     8    10    1
    24    10    11    1
    25    10    27    1
    26    10    12    1
    27    12    13    1
    28    12    42    1
    29    12    43    1
    30    13    14    1
    31    13    44    1
    32    13    45    1
    33    14    15    1
    34    14    46    1
    35    14    47    1
    36    15    16   am
    37    15    27    1
    38    16    17    2
    39    16    18    1
    40    18    26   ar
    41    18    19   ar
    42    19    20   ar
    43    19    48    1
    44    20    21   ar
    45    20    49    1
    46    21    22    1
    47    21    24   ar
    48    22    23    3
    49    24    25    1
    50    24    26   ar
    51    26    50    1
    52    27    51    1
    53    27    52    1
@<TRIPOS>SUBSTRUCTURE
     1 ZINC000124554441        1 TEMP              0 ****  ****    0 ROOT


##########                                Name:    ZINC000621594459
##########                DOCK_Rotatable_Bonds:                  10
##########                         Heavy_Atoms:                  25
##########                    Molecular_Weight:             389.497
##########                DOCK_Rotatable_Bonds:                  10
##########                       Formal_Charge:         -7.7486e-07
##########                     HBond_Acceptors:                  10
##########                        HBond_Donors:                   3
##########                         Heavy_Atoms:                  25
##########                          Grid_Score:          -34.606499
##########                     Grid_vdw_energy:          -32.470390
##########                      Grid_es_energy:           -2.136108
##########           Internal_energy_repulsive:           10.484724

@<TRIPOS>MOLECULE
ZINC000621594459
 48 49 1 0 0
SMALL
USER_CHARGES


@<TRIPOS>ATOM
      1 C1          5.0436    4.3539   53.2874 C.3     1  ZINC000621594459   -0.1600
      2 C2          4.6527    2.9632   53.7917 C.3     1  ZINC000621594459    0.1300
      3 C3          3.7658    3.1008   55.0309 C.3     1  ZINC000621594459   -0.1800
      4 N4          3.9186    2.2517   52.7424 N.am    1  ZINC000621594459   -1.1100
      5 S5          4.7397    1.3409   51.6296 S.o2    1  ZINC000621594459    2.6200
      6 O6          5.5336    2.2836   50.9223 O.2     1  ZINC000621594459   -0.9500
      7 O7          5.3403    0.3071   52.3976 O.2     1  ZINC000621594459   -0.9400
      8 C8          3.4450    0.6647   50.5541 C.3     1  ZINC000621594459   -0.6600
      9 C9          2.6656    1.8131   49.9101 C.3     1  ZINC000621594459    0.1300
     10 N10         1.5193    2.1591   50.7541 N.am    1  ZINC000621594459   -0.7200
     11 C11         0.2864    2.2404   50.2158 C.2     1  ZINC000621594459    0.5600
     12 O12         0.1253    2.0251   49.0304 O.2     1  ZINC000621594459   -0.5200
     13 C13        -0.8703    2.5913   51.0673 C.ar    1  ZINC000621594459   -0.1500
     14 C14        -0.6730    2.9709   52.3957 C.ar    1  ZINC000621594459   -0.0300
     15 C15        -1.7567    3.2976   53.1848 C.ar    1  ZINC000621594459   -0.1400
     16 C16        -3.0366    3.2490   52.6619 C.ar    1  ZINC000621594459    0.0100
     17 C17        -3.2391    2.8730   51.3457 C.ar    1  ZINC000621594459   -0.6800
     18 S18        -4.8734    2.8138   50.6899 S.o2    1  ZINC000621594459    2.7000
     19 O19        -5.4001    4.1286   50.8055 O.2     1  ZINC000621594459   -0.9400
     20 O20        -4.7850    2.1179   49.4541 O.2     1  ZINC000621594459   -0.9500
     21 N21        -5.7730    1.8592   51.7008 N.am    1  ZINC000621594459   -1.0900
     22 C22        -5.3913    0.4621   51.9211 C.3     1  ZINC000621594459    0.0800
     23 C23        -6.4292   -0.4611   52.5624 C.3     1  ZINC000621594459   -0.1800
     24 C24        -6.0931   -0.6035   51.0767 C.3     1  ZINC000621594459   -0.1900
     25 C25        -2.1639    2.5499   50.5444 C.ar    1  ZINC000621594459    0.0400
     26 H26         5.5897    4.8833   54.0681 H       1  ZINC000621594459    0.0700
     27 H27         5.6753    4.2559   52.4046 H       1  ZINC000621594459    0.0700
     28 H28         4.1441    4.9132   53.0301 H       1  ZINC000621594459    0.0600
     29 H29         5.5522    2.4040   54.0490 H       1  ZINC000621594459    0.0900
     30 H30         2.8663    3.6601   54.7736 H       1  ZINC000621594459    0.0700
     31 H31         3.4872    2.1101   55.3901 H       1  ZINC000621594459    0.0600
     32 H32         4.3120    3.6302   55.8116 H       1  ZINC000621594459    0.0700
     33 H33         2.9515    2.3142   52.6994 H       1  ZINC000621594459    0.4200
     34 H34         3.9017    0.0539   49.7754 H       1  ZINC000621594459    0.1400
     35 H35         2.7653    0.0511   51.1454 H       1  ZINC000621594459    0.1400
     36 H36         3.3166    2.6814   49.8076 H       1  ZINC000621594459    0.0900
     37 H37         2.3125    1.5055   48.9258 H       1  ZINC000621594459    0.0900
     38 H38         1.6476    2.3297   51.7003 H       1  ZINC000621594459    0.4000
     39 H39         0.3256    3.0086   52.8053 H       1  ZINC000621594459    0.1300
     40 H40        -1.6055    3.5916   54.2129 H       1  ZINC000621594459    0.1400
     41 H41        -3.8815    3.5054   53.2839 H       1  ZINC000621594459    0.1500
     42 H42        -6.5527    2.2251   52.1471 H       1  ZINC000621594459    0.4200
     43 H43        -4.3442    0.2950   52.1736 H       1  ZINC000621594459    0.1400
     44 H44        -6.0650   -1.2357   53.2374 H       1  ZINC000621594459    0.1100
     45 H45        -7.3960   -0.0290   52.8206 H       1  ZINC000621594459    0.1000
     46 H46        -6.8388   -0.2650   50.3573 H       1  ZINC000621594459    0.1000
     47 H47        -5.5078   -1.4718   50.7739 H       1  ZINC000621594459    0.1000
     48 H48        -2.3232    2.2569   49.5172 H       1  ZINC000621594459    0.1600
@<TRIPOS>BOND
     1     1     2    1
     2     1    26    1
     3     1    27    1
     4     1    28    1
     5     2     3    1
     6     2     4    1
     7     2    29    1
     8     3    30    1
     9     3    31    1
    10     3    32    1
    11     4     5   am
    12     4    33    1
    13     5     6    2
    14     5     7    2
    15     5     8    1
    16     8     9    1
    17     8    34    1
    18     8    35    1
    19     9    10    1
    20     9    36    1
    21     9    37    1
    22    10    11   am
    23    10    38    1
    24    11    12    2
    25    11    13    1
    26    13    25   ar
    27    13    14   ar
    28    14    15   ar
    29    14    39    1
    30    15    16   ar
    31    15    40    1
    32    16    17   ar
    33    16    41    1
    34    17    18    1
    35    17    25   ar
    36    18    19    2
    37    18    20    2
    38    18    21   am
    39    21    22    1
    40    21    42    1
    41    22    24    1
    42    22    23    1
    43    22    43    1
    44    23    24    1
    45    23    44    1
    46    23    45    1
    47    24    46    1
    48    24    47    1
    49    25    48    1
@<TRIPOS>SUBSTRUCTURE
     1 ZINC000621594459        1 TEMP              0 ****  ****    0 ROOT


##########                                Name:    ZINC000770850676
##########                DOCK_Rotatable_Bonds:                  13
##########                         Heavy_Atoms:                  30
##########                    Molecular_Weight:             412.486
##########                DOCK_Rotatable_Bonds:                  13
##########                       Formal_Charge:          -0.0299994
##########                     HBond_Acceptors:                   7
##########                        HBond_Donors:                   3
##########                         Heavy_Atoms:                  30
##########                          Grid_Score:          -34.595917
##########                     Grid_vdw_energy:          -34.710533
##########                      Grid_es_energy:            0.114616
##########           Internal_energy_repulsive:           16.012573

@<TRIPOS>MOLECULE
ZINC000770850676
 58 60 1 0 0
SMALL
USER_CHARGES


@<TRIPOS>ATOM
      1 O1         -8.3758    3.7293   53.9938 O.2     1  ZINC000770850676   -0.5300
      2 C2         -8.6715    2.5690   54.1865 C.2     1  ZINC000770850676    0.5100
      3 N3         -8.3120    1.9640   55.3360 N.am    1  ZINC000770850676   -0.7000
      4 C4         -7.5587    2.7061   56.3499 C.3     1  ZINC000770850676    0.1600
      5 H5         -7.9338    3.7280   56.4056 H       1  ZINC000770850676    0.1000
      6 C6         -6.0767    2.7268   55.9705 C.3     1  ZINC000770850676    0.0600
      7 O7         -5.6587    4.0763   55.7560 O.3     1  ZINC000770850676   -0.5700
      8 C8         -7.7276    2.0261   57.7100 C.3     1  ZINC000770850676   -0.1500
      9 C9         -7.3163    2.9959   58.8196 C.3     1  ZINC000770850676    0.1500
     10 H10        -6.2391    3.1577   58.7798 H       1  ZINC000770850676    0.1100
     11 O11        -7.9921    4.2418   58.6381 O.3     1  ZINC000770850676   -0.5400
     12 C12        -7.6877    2.4135   60.1590 C.ar    1  ZINC000770850676   -0.1200
     13 C13        -7.4349    1.0811   60.4275 C.ar    1  ZINC000770850676   -0.1100
     14 C14        -7.7756    0.5469   61.6560 C.ar    1  ZINC000770850676   -0.1200
     15 C15        -8.3685    1.3450   62.6163 C.ar    1  ZINC000770850676   -0.1200
     16 C16        -8.6205    2.6775   62.3483 C.ar    1  ZINC000770850676   -0.1200
     17 C17        -8.2759    3.2128   61.1212 C.ar    1  ZINC000770850676   -0.1100
     18 C18        -9.4464    1.8056   53.1436 C.3     1  ZINC000770850676    0.1400
     19 H19        -9.4715    2.3717   52.2124 H       1  ZINC000770850676    0.1000
     20 C20       -10.8847    1.5498   53.6411 C.3     1  ZINC000770850676   -0.1200
     21 C21       -11.1795    0.1151   53.1291 C.3     1  ZINC000770850676   -0.1300
     22 C22        -9.7921   -0.5584   53.2749 C.3     1  ZINC000770850676    0.1000
     23 N23        -8.8204    0.4950   52.9154 N.am    1  ZINC000770850676   -0.5900
     24 C24        -7.5701    0.2871   52.4572 C.2     1  ZINC000770850676    0.6700
     25 O25        -7.1582   -0.8463   52.3082 O.2     1  ZINC000770850676   -0.5600
     26 O26        -6.7774    1.3353   52.1646 O.3     1  ZINC000770850676   -0.3600
     27 C27        -5.9330    1.2154   50.9895 C.3     1  ZINC000770850676    0.1300
     28 C28        -4.7333    2.1149   51.1392 C.ar    1  ZINC000770850676   -0.1000
     29 C29        -4.9055    3.4794   51.2783 C.ar    1  ZINC000770850676   -0.0900
     30 C30        -3.8049    4.3046   51.4156 C.ar    1  ZINC000770850676   -0.1200
     31 C31        -2.5322    3.7652   51.4143 C.ar    1  ZINC000770850676   -0.1100
     32 C32        -2.3600    2.4006   51.2760 C.ar    1  ZINC000770850676   -0.1200
     33 C33        -3.4607    1.5750   51.1430 C.ar    1  ZINC000770850676   -0.0900
     34 H34        -8.5519    1.0372   55.4919 H       1  ZINC000770850676    0.4000
     35 H35        -5.4890    2.2882   56.7770 H       1  ZINC000770850676    0.0500
     36 H36        -5.9273    2.1507   55.0573 H       1  ZINC000770850676    0.0500
     37 H37        -4.7119    4.1724   55.5847 H       1  ZINC000770850676    0.3800
     38 H38        -8.7705    1.7397   57.8460 H       1  ZINC000770850676    0.0800
     39 H39        -7.0983    1.1372   57.7525 H       1  ZINC000770850676    0.0900
     40 H40        -7.7731    4.9086   59.3033 H       1  ZINC000770850676    0.3700
     41 H41        -6.9716    0.4576   59.6771 H       1  ZINC000770850676    0.1200
     42 H42        -7.5787   -0.4942   61.8655 H       1  ZINC000770850676    0.1200
     43 H43        -8.6354    0.9275   63.5759 H       1  ZINC000770850676    0.1200
     44 H44        -9.0841    3.3010   63.0984 H       1  ZINC000770850676    0.1200
     45 H45        -8.4728    4.2539   60.9118 H       1  ZINC000770850676    0.1200
     46 H46       -10.9286    1.5874   54.7296 H       1  ZINC000770850676    0.0800
     47 H47       -11.5782    2.2664   53.2011 H       1  ZINC000770850676    0.1000
     48 H48       -11.9214   -0.3789   53.7565 H       1  ZINC000770850676    0.0900
     49 H49       -11.4990    0.1301   52.0871 H       1  ZINC000770850676    0.0800
     50 H50        -9.6354   -0.8859   54.3026 H       1  ZINC000770850676    0.0700
     51 H51        -9.7059   -1.4018   52.5897 H       1  ZINC000770850676    0.0900
     52 H52        -5.6017    0.1823   50.8841 H       1  ZINC000770850676    0.0800
     53 H53        -6.4982    1.5077   50.1045 H       1  ZINC000770850676    0.0800
     54 H54        -5.8999    3.9008   51.2795 H       1  ZINC000770850676    0.1200
     55 H55        -3.9395    5.3707   51.5237 H       1  ZINC000770850676    0.1300
     56 H56        -1.6723    4.4100   51.5208 H       1  ZINC000770850676    0.1300
     57 H57        -1.3656    1.9792   51.2745 H       1  ZINC000770850676    0.1300
     58 H58        -3.3262    0.5089   51.0350 H       1  ZINC000770850676    0.1200
@<TRIPOS>BOND
     1     1     2    2
     2     2     3   am
     3     2    18    1
     4     3     4    1
     5     3    34    1
     6     4     5    1
     7     4     6    1
     8     4     8    1
     9     6     7    1
    10     6    35    1
    11     6    36    1
    12     7    37    1
    13     8     9    1
    14     8    38    1
    15     8    39    1
    16     9    10    1
    17     9    11    1
    18     9    12    1
    19    11    40    1
    20    12    17   ar
    21    12    13   ar
    22    13    14   ar
    23    13    41    1
    24    14    15   ar
    25    14    42    1
    26    15    16   ar
    27    15    43    1
    28    16    17   ar
    29    16    44    1
    30    17    45    1
    31    18    19    1
    32    18    23    1
    33    18    20    1
    34    20    21    1
    35    20    46    1
    36    20    47    1
    37    21    22    1
    38    21    48    1
    39    21    49    1
    40    22    23    1
    41    22    50    1
    42    22    51    1
    43    23    24   am
    44    24    25    2
    45    24    26    1
    46    26    27    1
    47    27    28    1
    48    27    52    1
    49    27    53    1
    50    28    33   ar
    51    28    29   ar
    52    29    30   ar
    53    29    54    1
    54    30    31   ar
    55    30    55    1
    56    31    32   ar
    57    31    56    1
    58    32    33   ar
    59    32    57    1
    60    33    58    1
@<TRIPOS>SUBSTRUCTURE
     1 ZINC000770850676        1 TEMP              0 ****  ****    0 ROOT


##########                                Name:    ZINC000110375116
##########                DOCK_Rotatable_Bonds:                  10
##########                         Heavy_Atoms:                  27
##########                    Molecular_Weight:             396.511
##########                DOCK_Rotatable_Bonds:                  10
##########                       Formal_Charge:        -2.23517e-07
##########                     HBond_Acceptors:                   9
##########                        HBond_Donors:                   0
##########                         Heavy_Atoms:                  27
##########                          Grid_Score:          -34.589825
##########                     Grid_vdw_energy:          -34.224056
##########                      Grid_es_energy:           -0.365768
##########           Internal_energy_repulsive:           30.579861

@<TRIPOS>MOLECULE
ZINC000110375116
 55 56 1 0 0
SMALL
USER_CHARGES


@<TRIPOS>ATOM
      1 C1        -14.0567   -2.0589   57.9640 C.3     1  ZINC000110375116   -0.1700
      2 C2        -13.2466   -2.5869   56.7782 C.3     1  ZINC000110375116    0.1000
      3 N3        -12.2842   -1.5679   56.3519 N.am    1  ZINC000110375116   -0.6200
      4 C4        -11.0073   -1.4263   57.0558 C.3     1  ZINC000110375116    0.1100
      5 C5        -10.6420   -2.7545   57.7217 C.3     1  ZINC000110375116   -0.1700
      6 C6        -12.5737   -0.7607   55.3121 C.2     1  ZINC000110375116    0.5100
      7 O7        -13.6315   -0.8768   54.7303 O.2     1  ZINC000110375116   -0.5300
      8 C8        -11.5828    0.2863   54.8725 C.3     1  ZINC000110375116   -0.1400
      9 C9        -10.5965   -0.3304   53.8786 C.3     1  ZINC000110375116   -0.0900
     10 C10        -9.6091    0.7400   53.4094 C.3     1  ZINC000110375116   -0.1400
     11 C11        -8.5540    0.1041   52.5413 C.2     1  ZINC000110375116    0.5200
     12 O12        -8.5729   -1.0920   52.3418 O.2     1  ZINC000110375116   -0.5300
     13 N13        -7.5894    0.8647   51.9867 N.am    1  ZINC000110375116   -0.6200
     14 C14        -7.5515    2.3146   52.2233 C.3     1  ZINC000110375116    0.0900
     15 C15        -6.1734    2.6834   52.7867 C.3     1  ZINC000110375116    0.1000
     16 N16        -5.1405    2.0775   51.9349 N.am    1  ZINC000110375116   -1.0000
     17 S17        -3.9546    3.0119   51.2544 S.o2    1  ZINC000110375116    2.7000
     18 O18        -3.0461    2.1152   50.6299 O.2     1  ZINC000110375116   -0.9400
     19 O19        -4.6180    4.0571   50.5570 O.2     1  ZINC000110375116   -0.9500
     20 C20        -3.0714    3.7763   52.5736 C.ar    1  ZINC000110375116   -0.7400
     21 C21        -1.8810    3.2316   53.0296 C.ar    1  ZINC000110375116    0.0200
     22 C22        -1.2199    3.8674   54.0697 C.ar    1  ZINC000110375116   -0.1900
     23 C23        -1.7658    5.0147   54.6131 C.ar    1  ZINC000110375116    0.1500
     24 N24        -2.9008    5.5047   54.1538 N.ar    1  ZINC000110375116   -0.4900
     25 C25        -3.5537    4.9298   53.1630 C.ar    1  ZINC000110375116    0.2000
     26 C26        -5.1784    0.6276   51.6983 C.3     1  ZINC000110375116    0.1000
     27 C27        -6.5531    0.2580   51.1394 C.3     1  ZINC000110375116    0.1000
     28 H28       -14.7728   -2.8170   58.2811 H       1  ZINC000110375116    0.0700
     29 H29       -13.3836   -1.8269   58.7893 H       1  ZINC000110375116    0.0600
     30 H30       -14.5908   -1.1566   57.6661 H       1  ZINC000110375116    0.0600
     31 H31       -12.7125   -3.4891   57.0760 H       1  ZINC000110375116    0.0800
     32 H32       -13.9198   -2.8188   55.9529 H       1  ZINC000110375116    0.0800
     33 H33       -10.2289   -1.1504   56.3444 H       1  ZINC000110375116    0.0800
     34 H34       -11.0957   -0.6506   57.8164 H       1  ZINC000110375116    0.0800
     35 H35        -9.6919   -2.6492   58.2454 H       1  ZINC000110375116    0.0700
     36 H36       -11.4204   -3.0304   58.4331 H       1  ZINC000110375116    0.0500
     37 H37       -10.5535   -3.5301   56.9610 H       1  ZINC000110375116    0.0600
     38 H38       -12.1128    1.1102   54.3946 H       1  ZINC000110375116    0.0900
     39 H39       -11.0389    0.6589   55.7405 H       1  ZINC000110375116    0.0900
     40 H40       -10.0512   -1.1403   54.3631 H       1  ZINC000110375116    0.0800
     41 H41       -11.1425   -0.7222   53.0205 H       1  ZINC000110375116    0.0800
     42 H42       -10.1414    1.4994   52.8368 H       1  ZINC000110375116    0.1000
     43 H43        -9.1363    1.2030   54.2756 H       1  ZINC000110375116    0.1000
     44 H44        -7.7161    2.8430   51.2843 H       1  ZINC000110375116    0.0800
     45 H45        -8.3252    2.5885   52.9406 H       1  ZINC000110375116    0.1000
     46 H46        -6.0570    3.7671   52.7883 H       1  ZINC000110375116    0.1100
     47 H47        -6.0797    2.3015   53.8033 H       1  ZINC000110375116    0.0800
     48 H48        -1.4781    2.3333   52.5856 H       1  ZINC000110375116    0.1500
     49 H49        -0.2903    3.4708   54.4504 H       1  ZINC000110375116    0.1500
     50 H50        -1.2574    5.5156   55.4236 H       1  ZINC000110375116    0.1700
     51 H51        -4.4805    5.3603   52.8136 H       1  ZINC000110375116    0.1700
     52 H52        -4.4046    0.3536   50.9810 H       1  ZINC000110375116    0.1100
     53 H53        -5.0137    0.0992   52.6373 H       1  ZINC000110375116    0.0800
     54 H54        -6.6682   -0.8260   51.1384 H       1  ZINC000110375116    0.1100
     55 H55        -6.6495    0.6396   50.1229 H       1  ZINC000110375116    0.0800
@<TRIPOS>BOND
     1     1     2    1
     2     1    28    1
     3     1    29    1
     4     1    30    1
     5     2     3    1
     6     2    31    1
     7     2    32    1
     8     3     4    1
     9     3     6   am
    10     4     5    1
    11     4    33    1
    12     4    34    1
    13     5    35    1
    14     5    36    1
    15     5    37    1
    16     6     7    2
    17     6     8    1
    18     8     9    1
    19     8    38    1
    20     8    39    1
    21     9    10    1
    22     9    40    1
    23     9    41    1
    24    10    11    1
    25    10    42    1
    26    10    43    1
    27    11    12    2
    28    11    13   am
    29    13    27    1
    30    13    14    1
    31    14    15    1
    32    14    44    1
    33    14    45    1
    34    15    16    1
    35    15    46    1
    36    15    47    1
    37    16    17   am
    38    16    26    1
    39    17    18    2
    40    17    19    2
    41    17    20    1
    42    20    25   ar
    43    20    21   ar
    44    21    22   ar
    45    21    48    1
    46    22    23   ar
    47    22    49    1
    48    23    24   ar
    49    23    50    1
    50    24    25   ar
    51    25    51    1
    52    26    27    1
    53    26    52    1
    54    26    53    1
    55    27    54    1
    56    27    55    1
@<TRIPOS>SUBSTRUCTURE
     1 ZINC000110375116        1 TEMP              0 ****  ****    0 ROOT


##########                                Name:    ZINC001347442583
##########                DOCK_Rotatable_Bonds:                   9
##########                         Heavy_Atoms:                  27
##########                    Molecular_Weight:             370.492
##########                DOCK_Rotatable_Bonds:                   9
##########                       Formal_Charge:          -0.0400009
##########                     HBond_Acceptors:                   5
##########                        HBond_Donors:                   1
##########                         Heavy_Atoms:                  27
##########                          Grid_Score:          -34.419762
##########                     Grid_vdw_energy:          -33.800198
##########                      Grid_es_energy:           -0.619562
##########           Internal_energy_repulsive:           12.133048

@<TRIPOS>MOLECULE
ZINC001347442583
 57 60 1 0 0
SMALL
USER_CHARGES


@<TRIPOS>ATOM
      1 O1         -8.9452   -1.2574   52.1966 O.2     1  ZINC001347442583   -0.5400
      2 C2         -8.8615   -0.1911   52.7683 C.2     1  ZINC001347442583    0.5400
      3 C3         -7.6369    0.6679   52.5853 C.3     1  ZINC001347442583   -0.1400
      4 C4         -6.5936   -0.0984   51.7695 C.3     1  ZINC001347442583   -0.1000
      5 C5         -5.2590    0.6481   51.8187 C.3     1  ZINC001347442583   -0.1100
      6 C6         -5.3113    1.8490   50.8719 C.3     1  ZINC001347442583   -0.0800
      7 C7         -4.2407    2.8379   51.2553 C.ar    1  ZINC001347442583   -0.0800
      8 C8         -4.5351    4.1873   51.3138 C.ar    1  ZINC001347442583   -0.1200
      9 C9         -3.5530    5.0943   51.6656 C.ar    1  ZINC001347442583   -0.1200
     10 C10        -2.2767    4.6519   51.9592 C.ar    1  ZINC001347442583   -0.1300
     11 C11        -1.9826    3.3025   51.9017 C.ar    1  ZINC001347442583   -0.1200
     12 C12        -2.9658    2.3950   51.5541 C.ar    1  ZINC001347442583   -0.1200
     13 N13        -9.8661    0.2283   53.5629 N.am    1  ZINC001347442583   -0.6300
     14 C14       -10.0209    1.4860   54.3699 C.3     1  ZINC001347442583    0.1200
     15 H15        -9.1882    2.1876   54.3211 H       1  ZINC001347442583    0.1200
     16 C16       -10.3243    0.8996   55.7816 C.3     1  ZINC001347442583   -0.1300
     17 C17       -11.1112   -0.3975   55.4712 C.3     1  ZINC001347442583   -0.1300
     18 C18       -11.1789   -0.4152   53.9091 C.3     1  ZINC001347442583    0.1200
     19 H19       -11.3638   -1.3898   53.4573 H       1  ZINC001347442583    0.1200
     20 C20       -12.1975    0.7034   53.5351 C.3     1  ZINC001347442583    0.1300
     21 H21       -13.0933    0.6288   54.1515 H       1  ZINC001347442583    0.1100
     22 N22       -12.5439    0.6317   52.1134 N.am    1  ZINC001347442583   -0.7200
     23 C23       -13.6645    1.2290   51.6619 C.2     1  ZINC001347442583    0.5300
     24 O24       -14.3854    1.8272   52.4323 O.2     1  ZINC001347442583   -0.5300
     25 C25       -14.0217    1.1537   50.1997 C.3     1  ZINC001347442583   -0.1500
     26 H26       -15.0919    1.3020   50.0556 H       1  ZINC001347442583    0.1100
     27 C27       -13.2049    2.1873   49.3774 C.3     1  ZINC001347442583   -0.1400
     28 C28       -13.1535    1.4889   47.9952 C.3     1  ZINC001347442583    0.0500
     29 O29       -13.0332    0.0877   48.2873 O.3     1  ZINC001347442583   -0.3800
     30 C30       -13.5662   -0.1900   49.5914 C.3     1  ZINC001347442583    0.0700
     31 C31       -11.3827    2.0201   53.8324 C.3     1  ZINC001347442583   -0.1400
     32 H32        -7.9098    1.5824   52.0586 H       1  ZINC001347442583    0.0900
     33 H33        -7.2212    0.9207   53.5607 H       1  ZINC001347442583    0.0900
     34 H34        -6.4672   -1.0969   52.1878 H       1  ZINC001347442583    0.0700
     35 H35        -6.9279   -0.1775   50.7351 H       1  ZINC001347442583    0.0700
     36 H36        -5.0737    0.9947   52.8352 H       1  ZINC001347442583    0.0600
     37 H37        -4.4563   -0.0221   51.5112 H       1  ZINC001347442583    0.0600
     38 H38        -5.1454    1.5123   49.8486 H       1  ZINC001347442583    0.0700
     39 H39        -6.2888    2.3259   50.9436 H       1  ZINC001347442583    0.0700
     40 H40        -5.5321    4.5329   51.0843 H       1  ZINC001347442583    0.1200
     41 H41        -3.7828    6.1486   51.7105 H       1  ZINC001347442583    0.1200
     42 H42        -1.5092    5.3606   52.2334 H       1  ZINC001347442583    0.1200
     43 H43        -0.9853    2.9568   52.1308 H       1  ZINC001347442583    0.1200
     44 H44        -2.7360    1.3406   51.5091 H       1  ZINC001347442583    0.1200
     45 H45        -9.3985    0.6701   56.3092 H       1  ZINC001347442583    0.0700
     46 H46       -10.9365    1.5907   56.3610 H       1  ZINC001347442583    0.0800
     47 H47       -10.5756   -1.2703   55.8449 H       1  ZINC001347442583    0.0800
     48 H48       -12.1136   -0.3496   55.8966 H       1  ZINC001347442583    0.0800
     49 H49       -11.9666    0.1544   51.4971 H       1  ZINC001347442583    0.4000
     50 H50       -13.7276    3.1419   49.3160 H       1  ZINC001347442583    0.0900
     51 H51       -12.2042    2.3153   49.7902 H       1  ZINC001347442583    0.0900
     52 H52       -14.0711    1.6821   47.4394 H       1  ZINC001347442583    0.0700
     53 H53       -12.2878    1.8331   47.4293 H       1  ZINC001347442583    0.0900
     54 H54       -12.7941   -0.6344   50.2194 H       1  ZINC001347442583    0.0700
     55 H55       -14.4134   -0.8706   49.5073 H       1  ZINC001347442583    0.0800
     56 H56       -11.8740    2.6092   54.6068 H       1  ZINC001347442583    0.0900
     57 H57       -11.2574    2.6077   52.9229 H       1  ZINC001347442583    0.0800
@<TRIPOS>BOND
     1     1     2    2
     2     2     3    1
     3     2    13   am
     4     3     4    1
     5     3    32    1
     6     3    33    1
     7     4     5    1
     8     4    34    1
     9     4    35    1
    10     5     6    1
    11     5    36    1
    12     5    37    1
    13     6     7    1
    14     6    38    1
    15     6    39    1
    16     7    12   ar
    17     7     8   ar
    18     8     9   ar
    19     8    40    1
    20     9    10   ar
    21     9    41    1
    22    10    11   ar
    23    10    42    1
    24    11    12   ar
    25    11    43    1
    26    12    44    1
    27    13    18    1
    28    13    14    1
    29    14    15    1
    30    14    31    1
    31    14    16    1
    32    16    17    1
    33    16    45    1
    34    16    46    1
    35    17    18    1
    36    17    47    1
    37    17    48    1
    38    18    19    1
    39    18    20    1
    40    20    21    1
    41    20    22    1
    42    20    31    1
    43    22    23   am
    44    22    49    1
    45    23    24    2
    46    23    25    1
    47    25    26    1
    48    25    30    1
    49    25    27    1
    50    27    28    1
    51    27    50    1
    52    27    51    1
    53    28    29    1
    54    28    52    1
    55    28    53    1
    56    29    30    1
    57    30    54    1
    58    30    55    1
    59    31    56    1
    60    31    57    1
@<TRIPOS>SUBSTRUCTURE
     1 ZINC001347442583        1 TEMP              0 ****  ****    0 ROOT


##########                                Name:    ZINC001105793963
##########                DOCK_Rotatable_Bonds:                   9
##########                         Heavy_Atoms:                  24
##########                    Molecular_Weight:             337.422
##########                DOCK_Rotatable_Bonds:                   9
##########                       Formal_Charge:          -0.0100003
##########                     HBond_Acceptors:                   8
##########                        HBond_Donors:                   2
##########                         Heavy_Atoms:                  24
##########                          Grid_Score:          -34.391384
##########                     Grid_vdw_energy:          -33.150597
##########                      Grid_es_energy:           -1.240788
##########           Internal_energy_repulsive:            9.455152

@<TRIPOS>MOLECULE
ZINC001105793963
 51 52 1 0 0
SMALL
USER_CHARGES


@<TRIPOS>ATOM
      1 C1        -11.8023   -0.4905   52.2695 C.3     1  ZINC001105793963   -0.1500
      2 C2        -10.8024   -0.5525   53.4261 C.3     1  ZINC001105793963   -0.0300
      3 C3         -9.4888    0.0414   52.9868 C.2     1  ZINC001105793963    0.1800
      4 N4         -8.4952   -0.5967   52.4169 N.2     1  ZINC001105793963   -0.4800
      5 C5         -7.5430    0.3298   52.2069 C.2     1  ZINC001105793963    0.1700
      6 C6         -6.1962    0.0967   51.5720 C.3     1  ZINC001105793963    0.1500
      7 N7         -5.7129    1.3490   50.9753 N.3     1  ZINC001105793963   -0.6900
      8 C8         -4.9912    2.1597   51.9652 C.3     1  ZINC001105793963    0.0700
      9 C9         -3.8060    2.8528   51.2903 C.3     1  ZINC001105793963   -0.1000
     10 H10        -4.1584    3.5514   50.5314 H       1  ZINC001105793963    0.1000
     11 C11        -2.8606    1.8075   50.6600 C.3     1  ZINC001105793963    0.1100
     12 N12        -1.5004    2.3494   50.8857 N.am    1  ZINC001105793963   -0.6200
     13 C13        -0.4511    2.3276   50.0402 C.2     1  ZINC001105793963    0.5300
     14 O14        -0.5653    1.8195   48.9449 O.2     1  ZINC001105793963   -0.5300
     15 C15         0.8641    2.9347   50.4559 C.3     1  ZINC001105793963    0.1300
     16 H16         0.6803    3.8508   51.0171 H       1  ZINC001105793963    0.1100
     17 C17         1.6286    1.9428   51.3349 C.3     1  ZINC001105793963   -0.1600
     18 N18         1.6579    3.2433   49.2639 N.am    1  ZINC001105793963   -0.7200
     19 C19         1.8516    4.5255   48.8965 C.2     1  ZINC001105793963    0.5200
     20 C20         2.6666    4.8429   47.6694 C.3     1  ZINC001105793963   -0.1700
     21 O21         1.3700    5.4239   49.5536 O.2     1  ZINC001105793963   -0.5500
     22 C22        -1.5553    2.9207   52.2515 C.3     1  ZINC001105793963    0.1000
     23 C23        -2.9469    3.5892   52.3392 C.3     1  ZINC001105793963   -0.1000
     24 H24        -3.3691    3.4561   53.3353 H       1  ZINC001105793963    0.0900
     25 C25        -2.8442    5.0777   52.0005 C.3     1  ZINC001105793963   -0.1500
     26 N26        -7.9977    1.4629   52.6517 N.2     1  ZINC001105793963   -0.3700
     27 O27        -9.1164    1.3199   53.0985 O.3     1  ZINC001105793963    0.0800
     28 H28       -11.9534    0.5481   51.9753 H       1  ZINC001105793963    0.0600
     29 H29       -11.4133   -1.0553   51.4224 H       1  ZINC001105793963    0.0600
     30 H30       -12.7523   -0.9201   52.5872 H       1  ZINC001105793963    0.0800
     31 H31       -11.1914    0.0124   54.2733 H       1  ZINC001105793963    0.1100
     32 H32       -10.6513   -1.5910   53.7204 H       1  ZINC001105793963    0.1000
     33 H33        -5.4903   -0.2405   52.3309 H       1  ZINC001105793963    0.1000
     34 H34        -6.2869   -0.6641   50.7966 H       1  ZINC001105793963    0.0700
     35 H35        -5.1358    1.1658   50.1681 H       1  ZINC001105793963    0.3500
     36 H36        -5.6637    2.9108   52.3795 H       1  ZINC001105793963    0.0800
     37 H37        -4.6277    1.5161   52.7664 H       1  ZINC001105793963    0.0400
     38 H38        -2.9734    0.8443   51.1576 H       1  ZINC001105793963    0.0700
     39 H39        -3.0589    1.7105   49.5926 H       1  ZINC001105793963    0.0900
     40 H40         2.5799    2.3818   51.6355 H       1  ZINC001105793963    0.0800
     41 H41         1.0379    1.7131   52.2217 H       1  ZINC001105793963    0.0800
     42 H42         1.8125    1.0266   50.7736 H       1  ZINC001105793963    0.0600
     43 H43         2.0442    2.5248   48.7390 H       1  ZINC001105793963    0.4100
     44 H44         3.0136    3.9155   47.2137 H       1  ZINC001105793963    0.0800
     45 H45         2.0508    5.3901   46.9557 H       1  ZINC001105793963    0.1000
     46 H46         3.5251    5.4526   47.9510 H       1  ZINC001105793963    0.1000
     47 H47        -1.4642    2.1312   52.9976 H       1  ZINC001105793963    0.0800
     48 H48        -0.7688    3.6634   52.3847 H       1  ZINC001105793963    0.0900
     49 H49        -2.4328    5.1946   50.9979 H       1  ZINC001105793963    0.0600
     50 H50        -3.8356    5.5288   52.0414 H       1  ZINC001105793963    0.0600
     51 H51        -2.1910    5.5699   52.7209 H       1  ZINC001105793963    0.0600
@<TRIPOS>BOND
     1     1     2    1
     2     1    28    1
     3     1    29    1
     4     1    30    1
     5     2     3    1
     6     2    31    1
     7     2    32    1
     8     3    27    1
     9     3     4    2
    10     4     5    1
    11     5     6    1
    12     5    26    2
    13     6     7    1
    14     6    33    1
    15     6    34    1
    16     7     8    1
    17     7    35    1
    18     8     9    1
    19     8    36    1
    20     8    37    1
    21     9    10    1
    22     9    23    1
    23     9    11    1
    24    11    12    1
    25    11    38    1
    26    11    39    1
    27    12    13   am
    28    12    22    1
    29    13    14    2
    30    13    15    1
    31    15    16    1
    32    15    17    1
    33    15    18    1
    34    17    40    1
    35    17    41    1
    36    17    42    1
    37    18    19   am
    38    18    43    1
    39    19    20    1
    40    19    21    2
    41    20    44    1
    42    20    45    1
    43    20    46    1
    44    22    23    1
    45    22    47    1
    46    22    48    1
    47    23    24    1
    48    23    25    1
    49    25    49    1
    50    25    50    1
    51    25    51    1
    52    26    27    1
@<TRIPOS>SUBSTRUCTURE
     1 ZINC001105793963        1 TEMP              0 ****  ****    0 ROOT


##########                                Name:    ZINC001124460178
##########                DOCK_Rotatable_Bonds:                  12
##########                         Heavy_Atoms:                  22
##########                    Molecular_Weight:             328.479
##########                DOCK_Rotatable_Bonds:                  12
##########                       Formal_Charge:          -0.0100003
##########                     HBond_Acceptors:                   7
##########                        HBond_Donors:                   2
##########                         Heavy_Atoms:                  22
##########                          Grid_Score:          -34.383484
##########                     Grid_vdw_energy:          -33.650768
##########                      Grid_es_energy:           -0.732717
##########           Internal_energy_repulsive:           19.378283

@<TRIPOS>MOLECULE
ZINC001124460178
 50 50 1 0 0
SMALL
USER_CHARGES


@<TRIPOS>ATOM
      1 C1          1.5827    2.3457   51.6521 C.3     1  ZINC001124460178   -0.0700
      2 C2          0.2334    2.2413   50.9889 C.2     1  ZINC001124460178    0.3100
      3 N3          0.1090    1.7374   49.7957 N.2     1  ZINC001124460178   -0.5000
      4 S4         -1.5504    1.8079   49.4354 S.3     1  ZINC001124460178    0.1800
      5 C5         -1.9873    2.5247   50.9402 C.2     1  ZINC001124460178    0.3400
      6 N6         -3.2534    2.8841   51.3656 N.pl3   1  ZINC001124460178   -0.6600
      7 C7         -4.3312    3.0619   50.3893 C.3     1  ZINC001124460178    0.0900
      8 C8         -5.6199    2.4427   50.9340 C.3     1  ZINC001124460178    0.0800
      9 H9         -6.2582    3.2285   51.3379 H       1  ZINC001124460178    0.1200
     10 O10        -6.3065    1.7666   49.8788 O.3     1  ZINC001124460178   -0.5500
     11 C11        -5.2775    1.4442   52.0415 C.3     1  ZINC001124460178    0.0900
     12 N12        -6.3803    0.4929   52.1995 N.am    1  ZINC001124460178   -0.6100
     13 C13        -6.1949   -0.9120   51.8278 C.3     1  ZINC001124460178    0.0800
     14 C14        -7.5656    0.9102   52.6867 C.2     1  ZINC001124460178    0.5100
     15 O15        -7.7196    2.0735   52.9930 O.2     1  ZINC001124460178   -0.5400
     16 C16        -8.6996   -0.0687   52.8509 C.3     1  ZINC001124460178   -0.1400
     17 C17        -9.6834    0.4611   53.8961 C.3     1  ZINC001124460178   -0.1100
     18 C18       -11.0452   -0.2084   53.7002 C.3     1  ZINC001124460178   -0.1200
     19 C19       -12.0272    0.3167   54.7494 C.3     1  ZINC001124460178   -0.1200
     20 C20       -12.5065   -0.8429   55.6248 C.3     1  ZINC001124460178   -0.1000
     21 C21       -11.4278   -1.1840   56.6549 C.3     1  ZINC001124460178   -0.1500
     22 C22       -13.7925   -0.4383   56.3481 C.3     1  ZINC001124460178   -0.1500
     23 N23        -0.8546    2.6508   51.5989 N.2     1  ZINC001124460178   -0.5800
     24 H24         1.7819    1.4344   52.2159 H       1  ZINC001124460178    0.0900
     25 H25         2.3521    2.4779   50.8914 H       1  ZINC001124460178    0.0900
     26 H26         1.5899    3.2004   52.3285 H       1  ZINC001124460178    0.0900
     27 H27        -3.4277    3.0185   52.3103 H       1  ZINC001124460178    0.4200
     28 H28        -4.4869    4.1256   50.2096 H       1  ZINC001124460178    0.0800
     29 H29        -4.0593    2.5715   49.4546 H       1  ZINC001124460178    0.0900
     30 H30        -6.7027    2.3585   49.2247 H       1  ZINC001124460178    0.3800
     31 H31        -4.3679    0.9052   51.7763 H       1  ZINC001124460178    0.0900
     32 H32        -5.1225    1.9796   52.9782 H       1  ZINC001124460178    0.1000
     33 H33        -5.8308   -1.4708   52.6899 H       1  ZINC001124460178    0.0600
     34 H34        -7.1468   -1.3297   51.4996 H       1  ZINC001124460178    0.0800
     35 H35        -5.4693   -0.9806   51.0173 H       1  ZINC001124460178    0.0800
     36 H36        -9.2138   -0.1924   51.8978 H       1  ZINC001124460178    0.0900
     37 H37        -8.3048   -1.0306   53.1782 H       1  ZINC001124460178    0.0900
     38 H38        -9.3085    0.2366   54.8947 H       1  ZINC001124460178    0.0700
     39 H39        -9.7891    1.5399   53.7817 H       1  ZINC001124460178    0.0700
     40 H40       -11.4221    0.0198   52.7033 H       1  ZINC001124460178    0.0600
     41 H41       -10.9386   -1.2876   53.8102 H       1  ZINC001124460178    0.0600
     42 H42       -11.5303    1.0607   55.3720 H       1  ZINC001124460178    0.0600
     43 H43       -12.8823    0.7728   54.2506 H       1  ZINC001124460178    0.0600
     44 H44       -12.7001   -1.7145   54.9994 H       1  ZINC001124460178    0.0700
     45 H45       -11.2341   -0.3126   57.2804 H       1  ZINC001124460178    0.0500
     46 H46       -11.7692   -2.0102   57.2786 H       1  ZINC001124460178    0.0500
     47 H47       -10.5116   -1.4724   56.1397 H       1  ZINC001124460178    0.0500
     48 H48       -14.5610   -0.1954   55.6142 H       1  ZINC001124460178    0.0600
     49 H49       -14.1341   -1.2645   56.9717 H       1  ZINC001124460178    0.0500
     50 H50       -13.5990    0.4331   56.9735 H       1  ZINC001124460178    0.0500
@<TRIPOS>BOND
     1     1     2    1
     2     1    24    1
     3     1    25    1
     4     1    26    1
     5     2    23    1
     6     2     3    2
     7     3     4    1
     8     4     5    1
     9     5     6    1
    10     5    23    2
    11     6     7    1
    12     6    27    1
    13     7     8    1
    14     7    28    1
    15     7    29    1
    16     8     9    1
    17     8    10    1
    18     8    11    1
    19    10    30    1
    20    11    12    1
    21    11    31    1
    22    11    32    1
    23    12    13    1
    24    12    14   am
    25    13    33    1
    26    13    34    1
    27    13    35    1
    28    14    15    2
    29    14    16    1
    30    16    17    1
    31    16    36    1
    32    16    37    1
    33    17    18    1
    34    17    38    1
    35    17    39    1
    36    18    19    1
    37    18    40    1
    38    18    41    1
    39    19    20    1
    40    19    42    1
    41    19    43    1
    42    20    21    1
    43    20    22    1
    44    20    44    1
    45    21    45    1
    46    21    46    1
    47    21    47    1
    48    22    48    1
    49    22    49    1
    50    22    50    1
@<TRIPOS>SUBSTRUCTURE
     1 ZINC001124460178        1 TEMP              0 ****  ****    0 ROOT


##########                                Name:    ZINC000028372981
##########                DOCK_Rotatable_Bonds:                   7
##########                         Heavy_Atoms:                  28
##########                    Molecular_Weight:             380.443
##########                DOCK_Rotatable_Bonds:                   7
##########                       Formal_Charge:         1.78814e-07
##########                     HBond_Acceptors:                   6
##########                        HBond_Donors:                   1
##########                         Heavy_Atoms:                  28
##########                          Grid_Score:          -34.317261
##########                     Grid_vdw_energy:          -34.238026
##########                      Grid_es_energy:           -0.079237
##########           Internal_energy_repulsive:           18.824717

@<TRIPOS>MOLECULE
ZINC000028372981
 52 54 1 0 0
SMALL
USER_CHARGES


@<TRIPOS>ATOM
      1 C1         -2.1215    3.1593   51.4253 C.3     1  ZINC000028372981   -0.1800
      2 C2         -3.3009    2.2214   51.4173 C.2     1  ZINC000028372981    0.5200
      3 O3         -3.3191    1.2765   50.6574 O.2     1  ZINC000028372981   -0.5100
      4 N4         -4.3356    2.4328   52.2547 N.am    1  ZINC000028372981   -0.5500
      5 C5         -4.4253    3.5356   53.2151 C.3     1  ZINC000028372981    0.1000
      6 C6         -5.7752    3.3436   53.9254 C.3     1  ZINC000028372981   -0.0900
      7 C7         -6.3649    2.1043   53.2897 C.ar    1  ZINC000028372981   -0.1500
      8 C8         -7.5577    1.4555   53.5178 C.ar    1  ZINC000028372981    0.0000
      9 C9         -7.8786    0.3054   52.7908 C.ar    1  ZINC000028372981   -0.1600
     10 C10        -9.1524   -0.3963   53.0347 C.2     1  ZINC000028372981    0.5200
     11 O11        -9.5233   -1.2651   52.2704 O.2     1  ZINC000028372981   -0.5000
     12 O12        -9.9050   -0.0742   54.1049 O.3     1  ZINC000028372981   -0.3200
     13 C13       -11.2136   -0.6957   54.2017 C.3     1  ZINC000028372981    0.0700
     14 H14       -11.1416   -1.7423   53.9056 H       1  ZINC000028372981    0.1200
     15 C15       -12.1926    0.0298   53.2764 C.3     1  ZINC000028372981   -0.1700
     16 C16       -11.7072   -0.6087   55.6230 C.2     1  ZINC000028372981    0.5200
     17 O17       -11.6713    0.4500   56.2136 O.2     1  ZINC000028372981   -0.4900
     18 N18       -12.1887   -1.7073   56.2376 N.am    1  ZINC000028372981   -0.6600
     19 C19       -12.6470   -1.6264   57.5572 C.ar    1  ZINC000028372981    0.1500
     20 C20       -11.8188   -1.1233   58.5518 C.ar    1  ZINC000028372981   -0.1300
     21 C21       -12.2744   -1.0444   59.8534 C.ar    1  ZINC000028372981   -0.1000
     22 C22       -13.5538   -1.4651   60.1663 C.ar    1  ZINC000028372981   -0.1300
     23 C23       -14.3813   -1.9663   59.1779 C.ar    1  ZINC000028372981   -0.0700
     24 C24       -15.7751   -2.4232   59.5233 C.3     1  ZINC000028372981   -0.1200
     25 C25       -13.9315   -2.0487   57.8749 C.ar    1  ZINC000028372981   -0.1200
     26 C26       -14.8334   -2.5958   56.7988 C.3     1  ZINC000028372981   -0.1200
     27 C27        -6.9855   -0.1712   51.8268 C.ar    1  ZINC000028372981   -0.0200
     28 C28        -5.7999    0.4856   51.6021 C.ar    1  ZINC000028372981   -0.1800
     29 C29        -5.4748    1.6337   52.3326 C.ar    1  ZINC000028372981    0.1900
     30 H30        -1.6638    3.1593   52.4145 H       1  ZINC000028372981    0.1000
     31 H31        -1.3905    2.8301   50.6867 H       1  ZINC000028372981    0.1000
     32 H32        -2.4570    4.1671   51.1802 H       1  ZINC000028372981    0.1000
     33 H33        -3.6082    3.4779   53.9343 H       1  ZINC000028372981    0.0900
     34 H34        -4.4048    4.4929   52.6944 H       1  ZINC000028372981    0.0900
     35 H35        -5.6244    3.1882   54.9936 H       1  ZINC000028372981    0.1000
     36 H36        -6.4209    4.2050   53.7545 H       1  ZINC000028372981    0.1000
     37 H37        -8.2438    1.8328   54.2615 H       1  ZINC000028372981    0.1400
     38 H38       -12.2646    1.0764   53.5725 H       1  ZINC000028372981    0.0800
     39 H39       -11.8355   -0.0332   52.2485 H       1  ZINC000028372981    0.0800
     40 H40       -13.1750   -0.4368   53.3491 H       1  ZINC000028372981    0.0800
     41 H41       -12.2174   -2.5540   55.7652 H       1  ZINC000028372981    0.4100
     42 H42       -10.8211   -0.7900   58.3070 H       1  ZINC000028372981    0.1400
     43 H43       -11.6308   -0.6532   60.6274 H       1  ZINC000028372981    0.1300
     44 H44       -13.9078   -1.4020   61.1847 H       1  ZINC000028372981    0.1200
     45 H45       -16.4668   -1.5867   59.4244 H       1  ZINC000028372981    0.0700
     46 H46       -16.0734   -3.2235   58.8460 H       1  ZINC000028372981    0.0700
     47 H47       -15.7933   -2.7902   60.5496 H       1  ZINC000028372981    0.0700
     48 H48       -15.4070   -1.7812   56.3565 H       1  ZINC000028372981    0.0700
     49 H49       -14.2301   -3.0755   56.0281 H       1  ZINC000028372981    0.0600
     50 H50       -15.5157   -3.3264   57.2332 H       1  ZINC000028372981    0.0800
     51 H51        -7.2280   -1.0565   51.2579 H       1  ZINC000028372981    0.1500
     52 H52        -5.1135    0.1126   50.8562 H       1  ZINC000028372981    0.1500
@<TRIPOS>BOND
     1     1     2    1
     2     1    30    1
     3     1    31    1
     4     1    32    1
     5     2     3    2
     6     2     4   am
     7     4    29    1
     8     4     5    1
     9     5     6    1
    10     5    33    1
    11     5    34    1
    12     6     7    1
    13     6    35    1
    14     6    36    1
    15     7    29   ar
    16     7     8   ar
    17     8     9   ar
    18     8    37    1
    19     9    10    1
    20     9    27   ar
    21    10    11    2
    22    10    12    1
    23    12    13    1
    24    13    14    1
    25    13    15    1
    26    13    16    1
    27    15    38    1
    28    15    39    1
    29    15    40    1
    30    16    17    2
    31    16    18   am
    32    18    19    1
    33    18    41    1
    34    19    25   ar
    35    19    20   ar
    36    20    21   ar
    37    20    42    1
    38    21    22   ar
    39    21    43    1
    40    22    23   ar
    41    22    44    1
    42    23    24    1
    43    23    25   ar
    44    24    45    1
    45    24    46    1
    46    24    47    1
    47    25    26    1
    48    26    48    1
    49    26    49    1
    50    26    50    1
    51    27    28   ar
    52    27    51    1
    53    28    29   ar
    54    28    52    1
@<TRIPOS>SUBSTRUCTURE
     1 ZINC000028372981        1 TEMP              0 ****  ****    0 ROOT


##########                                Name:    ZINC000995593866
##########                DOCK_Rotatable_Bonds:                   7
##########                         Heavy_Atoms:                  24
##########                    Molecular_Weight:             342.389
##########                DOCK_Rotatable_Bonds:                   7
##########                       Formal_Charge:                0.03
##########                     HBond_Acceptors:                   8
##########                        HBond_Donors:                   1
##########                         Heavy_Atoms:                  24
##########                          Grid_Score:          -34.315029
##########                     Grid_vdw_energy:          -32.839039
##########                      Grid_es_energy:           -1.475990
##########           Internal_energy_repulsive:           10.179514

@<TRIPOS>MOLECULE
ZINC000995593866
 48 50 1 0 0
SMALL
USER_CHARGES


@<TRIPOS>ATOM
      1 C1         -6.6638    3.7788   51.4150 C.3     1  ZINC000995593866   -0.1400
      2 C2         -5.7897    2.8111   52.2153 C.3     1  ZINC000995593866   -0.0800
      3 C3         -4.6140    3.5576   52.8488 C.3     1  ZINC000995593866   -0.1400
      4 C4         -6.6279    2.1043   53.3023 C.3     1  ZINC000995593866    0.1200
      5 N5         -7.0429    0.8249   52.6812 N.am    1  ZINC000995593866   -0.6300
      6 C6         -8.2356    0.2053   52.7824 C.2     1  ZINC000995593866    0.5400
      7 O7         -8.4233   -0.8462   52.2080 O.2     1  ZINC000995593866   -0.5300
      8 C8         -9.3358    0.8192   53.6092 C.3     1  ZINC000995593866   -0.1300
      9 C9        -10.4056   -0.2357   53.8983 C.3     1  ZINC000995593866   -0.1000
     10 C10       -11.5040    0.2482   54.8597 C.3     1  ZINC000995593866   -0.1300
     11 C11       -12.5071   -0.4975   53.9640 C.3     1  ZINC000995593866   -0.1400
     12 C12       -11.4972   -0.3180   52.8182 C.3     1  ZINC000995593866   -0.1400
     13 C13        -5.8496    0.3811   51.9238 C.3     1  ZINC000995593866    0.1100
     14 C14        -5.2765    1.6749   51.3064 C.3     1  ZINC000995593866    0.0800
     15 H15        -5.6471    1.8061   50.2899 H       1  ZINC000995593866    0.0700
     16 N16        -3.8080    1.6369   51.3127 N.3     1  ZINC000995593866   -0.6800
     17 C17        -3.2601    2.2561   50.0985 C.3     1  ZINC000995593866    0.1500
     18 C18        -1.7593    2.1205   50.0987 C.2     1  ZINC000995593866    0.1900
     19 N19        -0.9760    2.1144   51.1503 N.2     1  ZINC000995593866   -0.4300
     20 C20         0.2726    1.9722   50.6709 C.2     1  ZINC000995593866    0.0900
     21 C21         1.5388    1.9074   51.4856 C.3     1  ZINC000995593866    0.3800
     22 F22         2.4930    1.1443   50.8042 F       1  ZINC000995593866   -0.1800
     23 F23         2.0320    3.2014   51.6846 F       1  ZINC000995593866   -0.1700
     24 N24         0.1864    1.9005   49.3763 N.2     1  ZINC000995593866   -0.3400
     25 O25        -0.9728    1.9778   49.0277 O.3     1  ZINC000995593866    0.1000
     26 H26        -7.5172    3.2409   51.0021 H       1  ZINC000995593866    0.0600
     27 H27        -7.0182    4.5747   52.0699 H       1  ZINC000995593866    0.0600
     28 H28        -6.0787    4.2101   50.6028 H       1  ZINC000995593866    0.0600
     29 H29        -4.9924    4.3394   53.5075 H       1  ZINC000995593866    0.0700
     30 H30        -4.0079    2.8587   53.4253 H       1  ZINC000995593866    0.0700
     31 H31        -4.0040    4.0068   52.0650 H       1  ZINC000995593866    0.0600
     32 H32        -6.0214    1.9175   54.1884 H       1  ZINC000995593866    0.0800
     33 H33        -7.5017    2.7037   53.5580 H       1  ZINC000995593866    0.0900
     34 H34        -8.9228    1.1849   54.5493 H       1  ZINC000995593866    0.0900
     35 H35        -9.7824    1.6489   53.0613 H       1  ZINC000995593866    0.0900
     36 H36        -9.9836   -1.2040   54.1672 H       1  ZINC000995593866    0.1000
     37 H37       -11.4206   -0.1691   55.8633 H       1  ZINC000995593866    0.0700
     38 H38       -11.6387    1.3299   54.8598 H       1  ZINC000995593866    0.0800
     39 H39       -12.6605   -1.5374   54.2519 H       1  ZINC000995593866    0.0800
     40 H40       -13.4414    0.0427   53.8110 H       1  ZINC000995593866    0.0700
     41 H41       -11.6302    0.6088   52.2601 H       1  ZINC000995593866    0.0800
     42 H42       -11.4085   -1.1925   52.1735 H       1  ZINC000995593866    0.0700
     43 H43        -5.1215   -0.0748   52.5947 H       1  ZINC000995593866    0.0900
     44 H44        -6.1361   -0.3197   51.1396 H       1  ZINC000995593866    0.0800
     45 H45        -3.4384    2.0775   52.1416 H       1  ZINC000995593866    0.3600
     46 H46        -3.6698    1.7578   49.2199 H       1  ZINC000995593866    0.1200
     47 H47        -3.5296    3.3120   50.0760 H       1  ZINC000995593866    0.0800
     48 H48         1.3269    1.4469   52.4505 H       1  ZINC000995593866    0.1500
@<TRIPOS>BOND
     1     1     2    1
     2     1    26    1
     3     1    27    1
     4     1    28    1
     5     2    14    1
     6     2     3    1
     7     2     4    1
     8     3    29    1
     9     3    30    1
    10     3    31    1
    11     4     5    1
    12     4    32    1
    13     4    33    1
    14     5     6   am
    15     5    13    1
    16     6     7    2
    17     6     8    1
    18     8     9    1
    19     8    34    1
    20     8    35    1
    21     9    12    1
    22     9    10    1
    23     9    36    1
    24    10    11    1
    25    10    37    1
    26    10    38    1
    27    11    12    1
    28    11    39    1
    29    11    40    1
    30    12    41    1
    31    12    42    1
    32    13    14    1
    33    13    43    1
    34    13    44    1
    35    14    15    1
    36    14    16    1
    37    16    17    1
    38    16    45    1
    39    17    18    1
    40    17    46    1
    41    17    47    1
    42    18    25    1
    43    18    19    2
    44    19    20    1
    45    20    21    1
    46    20    24    2
    47    21    22    1
    48    21    23    1
    49    21    48    1
    50    24    25    1
@<TRIPOS>SUBSTRUCTURE
     1 ZINC000995593866        1 TEMP              0 ****  ****    0 ROOT


##########                                Name:    ZINC001109404798
##########                DOCK_Rotatable_Bonds:                   7
##########                         Heavy_Atoms:                  25
##########                    Molecular_Weight:              360.48
##########                DOCK_Rotatable_Bonds:                   7
##########                       Formal_Charge:           0.0100002
##########                     HBond_Acceptors:                   7
##########                        HBond_Donors:                   1
##########                         Heavy_Atoms:                  25
##########                          Grid_Score:          -34.312447
##########                     Grid_vdw_energy:          -34.351242
##########                      Grid_es_energy:            0.038794
##########           Internal_energy_repulsive:           27.308868

@<TRIPOS>MOLECULE
ZINC001109404798
 49 52 1 0 0
SMALL
USER_CHARGES


@<TRIPOS>ATOM
      1 C1          0.9159    2.3619   51.4240 C.3     1  ZINC001109404798   -0.0600
      2 C2         -0.5552    2.4648   51.1135 C.2     1  ZINC001109404798    0.1700
      3 N3         -1.1573    1.9754   50.0711 N.2     1  ZINC001109404798   -0.3900
      4 O4         -2.3429    2.2277   50.1140 O.3     1  ZINC001109404798    0.1000
      5 C5         -2.6183    2.9230   51.2215 C.2     1  ZINC001109404798    0.1900
      6 C6         -3.9710    3.4308   51.6495 C.3     1  ZINC001109404798    0.1600
      7 H7         -4.4969    3.8368   50.7854 H       1  ZINC001109404798    0.1000
      8 C8         -3.7946    4.5283   52.7010 C.3     1  ZINC001109404798   -0.1500
      9 N9         -4.7505    2.3251   52.2220 N.3     1  ZINC001109404798   -0.4800
     10 C10        -4.9981    1.2508   51.1952 C.3     1  ZINC001109404798    0.0400
     11 H11        -4.1115    0.7462   50.8113 H       1  ZINC001109404798    0.1100
     12 C12        -5.8364    2.0342   50.1405 C.3     1  ZINC001109404798   -0.1600
     13 C13        -6.6411    3.0439   50.9951 C.3     1  ZINC001109404798   -0.1600
     14 C14        -6.1816    2.7356   52.4521 C.3     1  ZINC001109404798    0.0400
     15 H15        -6.3363    3.5375   53.1740 H       1  ZINC001109404798    0.1200
     16 C16        -6.8492    1.3728   52.8067 C.3     1  ZINC001109404798    0.1500
     17 H17        -6.7366    1.1552   53.8688 H       1  ZINC001109404798    0.1000
     18 N18        -8.2650    1.3786   52.4304 N.am    1  ZINC001109404798   -0.7200
     19 C19        -9.2156    1.4290   53.3845 C.2     1  ZINC001109404798    0.5100
     20 O20        -8.8990    1.4710   54.5545 O.2     1  ZINC001109404798   -0.5300
     21 C21       -10.6721    1.4332   52.9974 C.3     1  ZINC001109404798   -0.1300
     22 C22       -11.1319   -0.0006   52.7262 C.3     1  ZINC001109404798   -0.0400
     23 C23       -11.2516   -0.7452   54.0308 C.2     1  ZINC001109404798   -0.1000
     24 C24       -12.3260   -0.6496   54.8156 C.2     1  ZINC001109404798   -0.2100
     25 S25       -12.1055   -1.6543   56.2423 S.3     1  ZINC001109404798    0.1000
     26 C26       -10.5199   -2.1627   55.6760 C.2     1  ZINC001109404798   -0.2100
     27 C27       -10.2574   -1.5848   54.5028 C.2     1  ZINC001109404798   -0.1300
     28 C28        -6.0141    0.3434   51.9524 C.3     1  ZINC001109404798   -0.1100
     29 N29        -1.4871    3.0749   51.8674 N.2     1  ZINC001109404798   -0.4800
     30 H30         1.1026    1.4575   52.0031 H       1  ZINC001109404798    0.0900
     31 H31         1.4817    2.3206   50.4933 H       1  ZINC001109404798    0.0900
     32 H32         1.2273    3.2331   52.0002 H       1  ZINC001109404798    0.0900
     33 H33        -3.2162    5.3488   52.2762 H       1  ZINC001109404798    0.0700
     34 H34        -4.7730    4.8955   53.0105 H       1  ZINC001109404798    0.0800
     35 H35        -3.2687    4.1224   53.5651 H       1  ZINC001109404798    0.0800
     36 H36        -5.1828    2.5575   49.4426 H       1  ZINC001109404798    0.0700
     37 H37        -6.5083    1.3613   49.6077 H       1  ZINC001109404798    0.0800
     38 H38        -6.3863    4.0676   50.7209 H       1  ZINC001109404798    0.0700
     39 H39        -7.7118    2.8715   50.8859 H       1  ZINC001109404798    0.0800
     40 H40        -8.5183    1.3462   51.4947 H       1  ZINC001109404798    0.4000
     41 H41       -11.2627    1.8567   53.8098 H       1  ZINC001109404798    0.0900
     42 H42       -10.8074    2.0344   52.0982 H       1  ZINC001109404798    0.1000
     43 H43       -12.1011    0.0169   52.2276 H       1  ZINC001109404798    0.0800
     44 H44       -10.4039   -0.5010   52.0877 H       1  ZINC001109404798    0.0800
     45 H45       -13.1977   -0.0471   54.6071 H       1  ZINC001109404798    0.1600
     46 H46        -9.8615   -2.8426   56.1963 H       1  ZINC001109404798    0.1600
     47 H47        -9.3356   -1.7529   53.9658 H       1  ZINC001109404798    0.1400
     48 H48        -6.6552   -0.1692   51.2351 H       1  ZINC001109404798    0.0800
     49 H49        -5.5111   -0.3743   52.6004 H       1  ZINC001109404798    0.0900
@<TRIPOS>BOND
     1     1     2    1
     2     1    30    1
     3     1    31    1
     4     1    32    1
     5     2    29    1
     6     2     3    2
     7     3     4    1
     8     4     5    1
     9     5     6    1
    10     5    29    2
    11     6     7    1
    12     6     8    1
    13     6     9    1
    14     8    33    1
    15     8    34    1
    16     8    35    1
    17     9    14    1
    18     9    10    1
    19    10    11    1
    20    10    28    1
    21    10    12    1
    22    12    13    1
    23    12    36    1
    24    12    37    1
    25    13    14    1
    26    13    38    1
    27    13    39    1
    28    14    15    1
    29    14    16    1
    30    16    17    1
    31    16    18    1
    32    16    28    1
    33    18    19   am
    34    18    40    1
    35    19    20    2
    36    19    21    1
    37    21    22    1
    38    21    41    1
    39    21    42    1
    40    22    23    1
    41    22    43    1
    42    22    44    1
    43    23    27    1
    44    23    24    2
    45    24    25    1
    46    24    45    1
    47    25    26    1
    48    26    27    2
    49    26    46    1
    50    27    47    1
    51    28    48    1
    52    28    49    1
@<TRIPOS>SUBSTRUCTURE
     1 ZINC001109404798        1 TEMP              0 ****  ****    0 ROOT


##########                                Name:    ZINC001340305486
##########                DOCK_Rotatable_Bonds:                   8
##########                         Heavy_Atoms:                  27
##########                    Molecular_Weight:             378.431
##########                DOCK_Rotatable_Bonds:                   8
##########                       Formal_Charge:          0.00999955
##########                     HBond_Acceptors:                  10
##########                        HBond_Donors:                   2
##########                         Heavy_Atoms:                  27
##########                          Grid_Score:          -34.299652
##########                     Grid_vdw_energy:          -33.323345
##########                      Grid_es_energy:           -0.976307
##########           Internal_energy_repulsive:           10.033291

@<TRIPOS>MOLECULE
ZINC001340305486
 53 55 1 0 0
SMALL
USER_CHARGES


@<TRIPOS>ATOM
      1 C1         -7.8316    2.8785   60.3846 C.3     1  ZINC001340305486    0.0900
      2 N2         -8.9111    1.9029   60.2147 N.am    1  ZINC001340305486   -0.7300
      3 C3         -8.6652    0.7244   59.6087 C.2     1  ZINC001340305486    0.5200
      4 O4         -7.5505    0.4722   59.2028 O.2     1  ZINC001340305486   -0.5100
      5 C5         -9.7752   -0.2800   59.4355 C.3     1  ZINC001340305486    0.0600
      6 H6         -9.3617   -1.2881   59.4630 H       1  ZINC001340305486    0.0900
      7 C7        -10.4699   -0.0482   58.0888 C.3     1  ZINC001340305486    0.0900
      8 N8        -11.6602   -0.9112   58.0260 N.am    1  ZINC001340305486   -0.5800
      9 C9        -11.8845   -1.7073   56.9618 C.2     1  ZINC001340305486    0.5100
     10 O10       -12.8723   -2.4115   56.9284 O.2     1  ZINC001340305486   -0.5200
     11 C11       -10.9169   -1.7228   55.8229 C.2     1  ZINC001340305486    0.5200
     12 O12       -10.0730   -2.5923   55.7556 O.2     1  ZINC001340305486   -0.5000
     13 N13       -10.9814   -0.7711   54.8709 N.am    1  ZINC001340305486   -0.6900
     14 C14       -10.0317   -0.7854   53.7554 C.3     1  ZINC001340305486    0.1200
     15 C15        -9.3950    0.5982   53.6101 C.3     1  ZINC001340305486   -0.0400
     16 C16        -8.2157    0.5127   52.6756 C.2     1  ZINC001340305486    0.1700
     17 N17        -7.6945   -0.5792   52.1816 N.2     1  ZINC001340305486   -0.2800
     18 N18        -6.7035   -0.2793   51.4163 N.2     1  ZINC001340305486   -0.2900
     19 C19        -6.5530    1.0142   51.3852 C.2     1  ZINC001340305486    0.1900
     20 C20        -5.5331    1.7933   50.5960 C.3     1  ZINC001340305486   -0.0400
     21 C21        -4.8941    2.8468   51.5058 C.3     1  ZINC001340305486   -0.1200
     22 C22        -5.7212    4.1282   51.4634 C.3     1  ZINC001340305486   -0.1300
     23 C23        -7.2039    3.8027   51.2888 C.3     1  ZINC001340305486   -0.1400
     24 C24        -7.6943    2.9722   52.4781 C.3     1  ZINC001340305486    0.1000
     25 N25        -7.5024    1.5511   52.1866 N.pl3   1  ZINC001340305486   -0.4600
     26 C26       -12.5985   -0.8789   59.1590 C.3     1  ZINC001340305486    0.0200
     27 C27       -11.8001   -1.0702   60.4536 C.3     1  ZINC001340305486    0.0500
     28 O28       -10.7277   -0.1256   60.4903 O.3     1  ZINC001340305486   -0.3500
     29 H29        -7.0335    2.4370   60.9815 H       1  ZINC001340305486    0.0600
     30 H30        -7.4404    3.1615   59.4074 H       1  ZINC001340305486    0.0600
     31 H31        -8.2176    3.7629   60.8916 H       1  ZINC001340305486    0.0800
     32 H32        -9.8029    2.1050   60.5383 H       1  ZINC001340305486    0.4000
     33 H33       -10.7692    0.9967   58.0052 H       1  ZINC001340305486    0.0900
     34 H34        -9.7892   -0.3018   57.2762 H       1  ZINC001340305486    0.1100
     35 H35       -11.6566   -0.0768   54.9241 H       1  ZINC001340305486    0.4200
     36 H36        -9.2544   -1.5246   53.9495 H       1  ZINC001340305486    0.0900
     37 H37       -10.5560   -1.0425   52.8351 H       1  ZINC001340305486    0.0800
     38 H38       -10.1290    1.2954   53.2060 H       1  ZINC001340305486    0.0900
     39 H39        -9.0602    0.9485   54.5865 H       1  ZINC001340305486    0.1100
     40 H40        -4.7634    1.1160   50.2260 H       1  ZINC001340305486    0.1000
     41 H41        -6.0216    2.2858   49.7550 H       1  ZINC001340305486    0.0900
     42 H42        -4.8596    2.4706   52.5282 H       1  ZINC001340305486    0.0600
     43 H43        -3.8812    3.0570   51.1622 H       1  ZINC001340305486    0.0800
     44 H44        -5.5807    4.6780   52.3941 H       1  ZINC001340305486    0.0700
     45 H45        -5.3875    4.7443   50.6285 H       1  ZINC001340305486    0.0800
     46 H46        -7.7746    4.7299   51.2342 H       1  ZINC001340305486    0.0900
     47 H47        -7.3449    3.2364   50.3683 H       1  ZINC001340305486    0.0800
     48 H48        -7.1287    3.2439   53.3693 H       1  ZINC001340305486    0.0900
     49 H49        -8.7536    3.1672   52.6457 H       1  ZINC001340305486    0.1000
     50 H50       -13.1121    0.0822   59.1830 H       1  ZINC001340305486    0.0800
     51 H51       -13.3274   -1.6827   59.0549 H       1  ZINC001340305486    0.1700
     52 H52       -12.4540   -0.9124   61.3113 H       1  ZINC001340305486    0.1200
     53 H53       -11.3947   -2.0816   60.4851 H       1  ZINC001340305486    0.0600
@<TRIPOS>BOND
     1     1     2    1
     2     1    29    1
     3     1    30    1
     4     1    31    1
     5     2     3   am
     6     2    32    1
     7     3     4    2
     8     3     5    1
     9     5     6    1
    10     5    28    1
    11     5     7    1
    12     7     8    1
    13     7    33    1
    14     7    34    1
    15     8     9   am
    16     8    26    1
    17     9    10    2
    18     9    11    1
    19    11    12    2
    20    11    13   am
    21    13    14    1
    22    13    35    1
    23    14    15    1
    24    14    36    1
    25    14    37    1
    26    15    16    1
    27    15    38    1
    28    15    39    1
    29    16    25    1
    30    16    17    2
    31    17    18    1
    32    18    19    2
    33    19    25    1
    34    19    20    1
    35    20    21    1
    36    20    40    1
    37    20    41    1
    38    21    22    1
    39    21    42    1
    40    21    43    1
    41    22    23    1
    42    22    44    1
    43    22    45    1
    44    23    24    1
    45    23    46    1
    46    23    47    1
    47    24    25    1
    48    24    48    1
    49    24    49    1
    50    26    27    1
    51    26    50    1
    52    26    51    1
    53    27    28    1
    54    27    52    1
    55    27    53    1
@<TRIPOS>SUBSTRUCTURE
     1 ZINC001340305486        1 TEMP              0 ****  ****    0 ROOT


##########                                Name:    ZINC000892249927
##########                DOCK_Rotatable_Bonds:                   8
##########                         Heavy_Atoms:                  27
##########                    Molecular_Weight:             364.487
##########                DOCK_Rotatable_Bonds:                   8
##########                       Formal_Charge:          -0.0300015
##########                     HBond_Acceptors:                   4
##########                        HBond_Donors:                   1
##########                         Heavy_Atoms:                  27
##########                          Grid_Score:          -34.269737
##########                     Grid_vdw_energy:          -33.815483
##########                      Grid_es_energy:           -0.454255
##########           Internal_energy_repulsive:            8.678337

@<TRIPOS>MOLECULE
ZINC000892249927
 55 58 1 0 0
SMALL
USER_CHARGES


@<TRIPOS>ATOM
      1 O1         -6.7978    5.1816   51.9040 O.2     1  ZINC000892249927   -0.5300
      2 C2         -6.4495    4.4111   52.7734 C.2     1  ZINC000892249927    0.5100
      3 C3         -6.5757    4.8036   54.2229 C.3     1  ZINC000892249927   -0.1400
      4 C4         -7.3843    3.7413   54.9705 C.3     1  ZINC000892249927   -0.1000
      5 C5         -7.8187    4.2938   56.3295 C.3     1  ZINC000892249927   -0.0800
      6 C6         -7.9501    3.1603   57.3138 C.ar    1  ZINC000892249927   -0.0900
      7 C7         -8.8754    2.1573   57.0935 C.ar    1  ZINC000892249927   -0.1100
      8 C8         -8.9958    1.1175   57.9965 C.ar    1  ZINC000892249927   -0.1100
      9 C9         -8.1906    1.0805   59.1195 C.ar    1  ZINC000892249927   -0.0500
     10 C10        -8.3223   -0.0528   60.1041 C.3     1  ZINC000892249927   -0.1200
     11 C11        -8.2135    0.2878   61.5917 C.3     1  ZINC000892249927   -0.1800
     12 C12        -9.5708   -0.0790   60.9880 C.3     1  ZINC000892249927   -0.1700
     13 C13        -7.2643    2.0828   59.3390 C.ar    1  ZINC000892249927   -0.1200
     14 C14        -7.1412    3.1205   58.4341 C.ar    1  ZINC000892249927   -0.1100
     15 N15        -5.9547    3.2016   52.4436 N.am    1  ZINC000892249927   -0.7300
     16 C16        -5.8320    2.8200   51.0345 C.3     1  ZINC000892249927    0.1400
     17 H17        -6.4480    3.4794   50.4231 H       1  ZINC000892249927    0.1000
     18 C18        -6.2961    1.3715   50.8535 C.3     1  ZINC000892249927   -0.1700
     19 C19        -5.3775    0.4456   51.6553 C.3     1  ZINC000892249927    0.0600
     20 O20        -4.0277    0.6236   51.2214 O.3     1  ZINC000892249927   -0.3700
     21 C21        -3.5239    1.9475   51.4102 C.3     1  ZINC000892249927    0.1400
     22 H22        -3.5755    2.2088   52.4671 H       1  ZINC000892249927    0.0700
     23 C23        -2.0915    2.0110   50.9461 C.ar    1  ZINC000892249927   -0.1400
     24 C24        -1.0946    2.4492   51.8039 C.ar    1  ZINC000892249927   -0.0700
     25 C25         0.2095    2.4906   51.3340 C.ar    1  ZINC000892249927   -0.1700
     26 C26         0.4700    2.0965   50.0354 C.ar    1  ZINC000892249927    0.1000
     27 N27        -0.5039    1.6850   49.2470 N.ar    1  ZINC000892249927   -0.4900
     28 C28        -1.7542    1.6276   49.6616 C.ar    1  ZINC000892249927    0.1300
     29 C29        -4.3683    2.9358   50.5979 C.3     1  ZINC000892249927   -0.1500
     30 H30        -5.5828    4.8828   54.6658 H       1  ZINC000892249927    0.0900
     31 H31        -7.0839    5.7651   54.2961 H       1  ZINC000892249927    0.0900
     32 H32        -8.2661    3.4782   54.3863 H       1  ZINC000892249927    0.0700
     33 H33        -6.7688    2.8541   55.1189 H       1  ZINC000892249927    0.0700
     34 H34        -7.0728    5.0026   56.6890 H       1  ZINC000892249927    0.0700
     35 H35        -8.7794    4.7984   56.2262 H       1  ZINC000892249927    0.0700
     36 H36        -9.5045    2.1861   56.2161 H       1  ZINC000892249927    0.1200
     37 H37        -9.7193    0.3342   57.8247 H       1  ZINC000892249927    0.1200
     38 H38        -7.9178   -1.0102   59.7757 H       1  ZINC000892249927    0.1100
     39 H39        -7.7374   -0.4457   62.2424 H       1  ZINC000892249927    0.1000
     40 H40        -8.0468    1.3315   61.8583 H       1  ZINC000892249927    0.1000
     41 H41       -10.2969    0.7233   60.8575 H       1  ZINC000892249927    0.1000
     42 H42        -9.9874   -1.0538   61.2417 H       1  ZINC000892249927    0.1000
     43 H43        -6.6349    2.0538   60.2162 H       1  ZINC000892249927    0.1200
     44 H44        -6.4175    3.9036   58.6057 H       1  ZINC000892249927    0.1200
     45 H45        -5.6798    2.5839   53.1391 H       1  ZINC000892249927    0.4000
     46 H46        -7.3200    1.2695   51.2132 H       1  ZINC000892249927    0.0800
     47 H47        -6.2514    1.1038   49.7978 H       1  ZINC000892249927    0.0800
     48 H48        -5.4534    0.6873   52.7154 H       1  ZINC000892249927    0.0500
     49 H49        -5.6770   -0.5903   51.4961 H       1  ZINC000892249927    0.1000
     50 H50        -1.3280    2.7516   52.8141 H       1  ZINC000892249927    0.1300
     51 H51         1.0112    2.8270   51.9746 H       1  ZINC000892249927    0.1400
     52 H52         1.4828    2.1262   49.6616 H       1  ZINC000892249927    0.1600
     53 H53        -2.5251    1.2852   48.9870 H       1  ZINC000892249927    0.1600
     54 H54        -4.2848    2.7002   49.5369 H       1  ZINC000892249927    0.0900
     55 H55        -4.0125    3.9507   50.7757 H       1  ZINC000892249927    0.0800
@<TRIPOS>BOND
     1     1     2    2
     2     2     3    1
     3     2    15   am
     4     3     4    1
     5     3    30    1
     6     3    31    1
     7     4     5    1
     8     4    32    1
     9     4    33    1
    10     5     6    1
    11     5    34    1
    12     5    35    1
    13     6    14   ar
    14     6     7   ar
    15     7     8   ar
    16     7    36    1
    17     8     9   ar
    18     8    37    1
    19     9    10    1
    20     9    13   ar
    21    10    12    1
    22    10    11    1
    23    10    38    1
    24    11    12    1
    25    11    39    1
    26    11    40    1
    27    12    41    1
    28    12    42    1
    29    13    14   ar
    30    13    43    1
    31    14    44    1
    32    15    16    1
    33    15    45    1
    34    16    17    1
    35    16    29    1
    36    16    18    1
    37    18    19    1
    38    18    46    1
    39    18    47    1
    40    19    20    1
    41    19    48    1
    42    19    49    1
    43    20    21    1
    44    21    22    1
    45    21    23    1
    46    21    29    1
    47    23    28   ar
    48    23    24   ar
    49    24    25   ar
    50    24    50    1
    51    25    26   ar
    52    25    51    1
    53    26    27   ar
    54    26    52    1
    55    27    28   ar
    56    28    53    1
    57    29    54    1
    58    29    55    1
@<TRIPOS>SUBSTRUCTURE
     1 ZINC000892249927        1 TEMP              0 ****  ****    0 ROOT


##########                                Name:    ZINC000429196987
##########                DOCK_Rotatable_Bonds:                   7
##########                         Heavy_Atoms:                  28
##########                    Molecular_Weight:             403.505
##########                DOCK_Rotatable_Bonds:                   7
##########                       Formal_Charge:          -0.0399997
##########                     HBond_Acceptors:                   9
##########                        HBond_Donors:                   1
##########                         Heavy_Atoms:                  28
##########                          Grid_Score:          -34.254726
##########                     Grid_vdw_energy:          -33.413662
##########                      Grid_es_energy:           -0.841065
##########           Internal_energy_repulsive:           10.413482

@<TRIPOS>MOLECULE
ZINC000429196987
 53 55 1 0 0
SMALL
USER_CHARGES


@<TRIPOS>ATOM
      1 C1        -10.2310    3.6070   53.4970 C.3     1  ZINC000429196987    0.0800
      2 N2        -10.1027    3.9149   52.0705 N.am    1  ZINC000429196987   -0.6300
      3 C3        -11.2393    4.4780   51.3376 C.3     1  ZINC000429196987    0.1600
      4 C4        -12.0317    3.3630   50.7055 C.ar    1  ZINC000429196987   -0.0600
      5 C5        -12.9801    2.6829   51.4465 C.ar    1  ZINC000429196987   -0.1300
      6 C6        -13.7071    1.6601   50.8666 C.ar    1  ZINC000429196987   -0.0300
      7 C7        -13.4859    1.3175   49.5458 C.ar    1  ZINC000429196987   -0.6600
      8 S8        -14.4122    0.0134   48.8069 S.o2    1  ZINC000429196987    2.5000
      9 C9        -15.1775    0.7719   47.3476 C.3     1  ZINC000429196987   -0.6500
     10 O10       -13.4302   -0.9371   48.4177 O.2     1  ZINC000429196987   -0.9400
     11 O11       -15.3994   -0.3086   49.7771 O.2     1  ZINC000429196987   -0.9400
     12 C12       -12.5385    1.9984   48.8045 C.ar    1  ZINC000429196987   -0.0300
     13 C13       -11.8143    3.0239   49.3831 C.ar    1  ZINC000429196987   -0.1100
     14 C14        -8.9390    3.6801   51.4325 C.2     1  ZINC000429196987    0.7100
     15 O15        -8.8320    3.9370   50.2489 O.2     1  ZINC000429196987   -0.5800
     16 N16        -7.8939    3.1605   52.1064 N.am    1  ZINC000429196987   -0.7400
     17 C17        -6.6295    2.9037   51.4125 C.3     1  ZINC000429196987    0.1600
     18 C18        -5.6919    4.1001   51.5975 C.3     1  ZINC000429196987   -0.1300
     19 C19        -4.3515    3.8008   50.9223 C.3     1  ZINC000429196987    0.0700
     20 N20        -3.7602    2.5959   51.5181 N.3     1  ZINC000429196987   -0.4700
     21 C21        -2.4819    2.3695   51.0197 C.ar    1  ZINC000429196987    0.2500
     22 C22        -1.3781    2.4279   51.8697 C.ar    1  ZINC000429196987   -0.1300
     23 C23        -0.1258    2.1947   51.3237 C.ar    1  ZINC000429196987   -0.1000
     24 C24        -0.0473    1.9176   49.9661 C.ar    1  ZINC000429196987    0.0200
     25 N25        -1.1442    1.8821   49.2358 N.ar    1  ZINC000429196987   -0.2200
     26 N26        -2.3076    2.0917   49.7358 N.ar    1  ZINC000429196987   -0.2800
     27 C27        -4.6208    1.4242   51.3114 C.3     1  ZINC000429196987    0.0600
     28 C28        -5.9693    1.6525   51.9982 C.3     1  ZINC000429196987   -0.1200
     29 H29       -10.5822    2.5821   53.6174 H       1  ZINC000429196987    0.0600
     30 H30        -9.2608    3.7178   53.9814 H       1  ZINC000429196987    0.0700
     31 H31       -10.9455    4.2919   53.9537 H       1  ZINC000429196987    0.0800
     32 H32       -11.8771    5.0321   52.0262 H       1  ZINC000429196987    0.1000
     33 H33       -10.8739    5.1497   50.5607 H       1  ZINC000429196987    0.0900
     34 H34       -13.1529    2.9506   52.4784 H       1  ZINC000429196987    0.1300
     35 H35       -14.4476    1.1283   51.4456 H       1  ZINC000429196987    0.1400
     36 H36       -14.3992    1.1460   46.6823 H       1  ZINC000429196987    0.1300
     37 H37       -15.7768    0.0277   46.8234 H       1  ZINC000429196987    0.1300
     38 H38       -15.8160    1.5981   47.6604 H       1  ZINC000429196987    0.1300
     39 H39       -12.3659    1.7311   47.7724 H       1  ZINC000429196987    0.1400
     40 H40       -11.0741    3.5558   48.8040 H       1  ZINC000429196987    0.1400
     41 H41        -7.9788    2.9567   53.0509 H       1  ZINC000429196987    0.4000
     42 H42        -6.8214    2.7510   50.3503 H       1  ZINC000429196987    0.0900
     43 H43        -6.1380    4.9855   51.1444 H       1  ZINC000429196987    0.0800
     44 H44        -5.5323    4.2762   52.6612 H       1  ZINC000429196987    0.0700
     45 H45        -4.5101    3.6385   49.8563 H       1  ZINC000429196987    0.0600
     46 H46        -3.6768    4.6449   51.0646 H       1  ZINC000429196987    0.0900
     47 H47        -1.4952    2.6485   52.9204 H       1  ZINC000429196987    0.1500
     48 H48         0.7629    2.2280   51.9364 H       1  ZINC000429196987    0.1500
     49 H49         0.9127    1.7312   49.5077 H       1  ZINC000429196987    0.1700
     50 H50        -4.7780    1.2730   50.2435 H       1  ZINC000429196987    0.0500
     51 H51        -4.1416    0.5421   51.7363 H       1  ZINC000429196987    0.0900
     52 H52        -5.8140    1.7900   53.0683 H       1  ZINC000429196987    0.0800
     53 H53        -6.6134    0.7891   51.8314 H       1  ZINC000429196987    0.0800
@<TRIPOS>BOND
     1     1     2    1
     2     1    29    1
     3     1    30    1
     4     1    31    1
     5     2     3    1
     6     2    14   am
     7     3     4    1
     8     3    32    1
     9     3    33    1
    10     4    13   ar
    11     4     5   ar
    12     5     6   ar
    13     5    34    1
    14     6     7   ar
    15     6    35    1
    16     7     8    1
    17     7    12   ar
    18     8     9    1
    19     8    10    2
    20     8    11    2
    21     9    36    1
    22     9    37    1
    23     9    38    1
    24    12    13   ar
    25    12    39    1
    26    13    40    1
    27    14    15    2
    28    14    16   am
    29    16    17    1
    30    16    41    1
    31    17    28    1
    32    17    18    1
    33    17    42    1
    34    18    19    1
    35    18    43    1
    36    18    44    1
    37    19    20    1
    38    19    45    1
    39    19    46    1
    40    20    21    1
    41    20    27    1
    42    21    26   ar
    43    21    22   ar
    44    22    23   ar
    45    22    47    1
    46    23    24   ar
    47    23    48    1
    48    24    25   ar
    49    24    49    1
    50    25    26   ar
    51    27    28    1
    52    27    50    1
    53    27    51    1
    54    28    52    1
    55    28    53    1
@<TRIPOS>SUBSTRUCTURE
     1 ZINC000429196987        1 TEMP              0 ****  ****    0 ROOT


##########                                Name:    ZINC001570985666
##########                DOCK_Rotatable_Bonds:                   7
##########                         Heavy_Atoms:                  26
##########                    Molecular_Weight:             357.415
##########                DOCK_Rotatable_Bonds:                   7
##########                       Formal_Charge:          -0.0100001
##########                     HBond_Acceptors:                   9
##########                        HBond_Donors:                   3
##########                         Heavy_Atoms:                  26
##########                          Grid_Score:          -34.214268
##########                     Grid_vdw_energy:          -32.325111
##########                      Grid_es_energy:           -1.889155
##########           Internal_energy_repulsive:           11.331692

@<TRIPOS>MOLECULE
ZINC001570985666
 49 52 1 0 0
SMALL
USER_CHARGES


@<TRIPOS>ATOM
      1 C1         -7.3563    3.3716   52.1546 C.3     1  ZINC001570985666   -0.1600
      2 C2         -6.8202    2.1031   52.8214 C.3     1  ZINC001570985666    0.1300
      3 H3         -6.1556    2.3691   53.6433 H       1  ZINC001570985666    0.0800
      4 C4         -6.0590    1.2478   51.7866 C.3     1  ZINC001570985666    0.1400
      5 H5         -6.3919    1.4798   50.7749 H       1  ZINC001570985666    0.1100
      6 N6         -4.6131    1.4469   51.9128 N.am    1  ZINC001570985666   -0.7200
      7 C7         -3.9011    1.9001   50.8621 C.2     1  ZINC001570985666    0.6000
      8 O8         -4.4586    2.1426   49.8088 O.2     1  ZINC001570985666   -0.5300
      9 C9         -2.4474    2.1020   50.9895 C.2     1  ZINC001570985666   -0.2300
     10 C10        -1.7841    2.6244   52.0788 C.2     1  ZINC001570985666    0.0700
     11 N11        -0.4652    2.6425   51.8012 N.pl3   1  ZINC001570985666   -0.5200
     12 C12        -0.2605    2.1369   50.5411 C.2     1  ZINC001570985666    0.0600
     13 C13         1.0507    1.9901   49.8706 C.2     1  ZINC001570985666    0.2500
     14 N14         2.2359    2.2462   50.3915 N.2     1  ZINC001570985666   -0.3100
     15 N15         3.1242    1.9935   49.4926 N.pl3   1  ZINC001570985666   -0.2200
     16 N16         2.5414    1.5857   48.4198 N.2     1  ZINC001570985666   -0.0400
     17 N17         1.2669    1.5651   48.6164 N.2     1  ZINC001570985666   -0.2600
     18 C18        -1.4628    1.7897   50.0164 C.2     1  ZINC001570985666   -0.0600
     19 C19        -6.4537   -0.2013   52.1758 C.3     1  ZINC001570985666   -0.1500
     20 C20        -7.9223   -0.0121   52.6310 C.3     1  ZINC001570985666    0.1000
     21 N21        -7.9383    1.2921   53.3249 N.am    1  ZINC001570985666   -0.6200
     22 C22        -8.8304    1.6730   54.2607 C.2     1  ZINC001570985666    0.5300
     23 O23        -8.7478    2.7728   54.7651 O.2     1  ZINC001570985666   -0.5300
     24 C24        -9.9303    0.7322   54.6803 C.3     1  ZINC001570985666   -0.1300
     25 C25       -11.0792    0.8093   53.6727 C.3     1  ZINC001570985666   -0.1000
     26 C26       -11.3036   -0.4972   52.8932 C.3     1  ZINC001570985666   -0.1300
     27 C27       -12.8116   -0.2357   53.0438 C.3     1  ZINC001570985666   -0.1400
     28 C28       -12.4648    0.5812   54.2996 C.3     1  ZINC001570985666   -0.1400
     29 H29        -7.8972    3.9676   52.8897 H       1  ZINC001570985666    0.0700
     30 H30        -6.5241    3.9525   51.7571 H       1  ZINC001570985666    0.0700
     31 H31        -8.0295    3.0982   51.3421 H       1  ZINC001570985666    0.0600
     32 H32        -4.1682    1.2524   52.7525 H       1  ZINC001570985666    0.4000
     33 H33        -2.2423    2.9618   52.9967 H       1  ZINC001570985666    0.1800
     34 H34         0.2296    2.9626   52.3975 H       1  ZINC001570985666    0.4300
     35 H35         4.0821    2.0949   49.6067 H       1  ZINC001570985666    0.4800
     36 H36        -1.6379    1.3625   49.0401 H       1  ZINC001570985666    0.1600
     37 H37        -6.3941   -0.8670   51.3147 H       1  ZINC001570985666    0.0900
     38 H38        -5.8350   -0.5682   52.9948 H       1  ZINC001570985666    0.0800
     39 H39        -8.5874    0.0080   51.7677 H       1  ZINC001570985666    0.0800
     40 H40        -8.2126   -0.8085   53.3162 H       1  ZINC001570985666    0.0800
     41 H41        -9.5442   -0.2865   54.7137 H       1  ZINC001570985666    0.0900
     42 H42       -10.2938    1.0157   55.6680 H       1  ZINC001570985666    0.0900
     43 H43       -11.0272    1.6943   53.0385 H       1  ZINC001570985666    0.1000
     44 H44       -10.9541   -0.4557   51.8616 H       1  ZINC001570985666    0.0700
     45 H45       -10.9596   -1.3859   53.4224 H       1  ZINC001570985666    0.0800
     46 H46       -13.2337    0.3627   52.2364 H       1  ZINC001570985666    0.0800
     47 H47       -13.3917   -1.1343   53.2539 H       1  ZINC001570985666    0.0700
     48 H48       -12.4382   -0.0127   55.2133 H       1  ZINC001570985666    0.0800
     49 H49       -13.0526    1.4932   54.4034 H       1  ZINC001570985666    0.0700
@<TRIPOS>BOND
     1     1     2    1
     2     1    29    1
     3     1    30    1
     4     1    31    1
     5     2     3    1
     6     2    21    1
     7     2     4    1
     8     4     5    1
     9     4     6    1
    10     4    19    1
    11     6     7   am
    12     6    32    1
    13     7     8    2
    14     7     9    1
    15     9    18    1
    16     9    10    2
    17    10    11    1
    18    10    33    1
    19    11    12    1
    20    11    34    1
    21    12    13    1
    22    12    18    2
    23    13    17    1
    24    13    14    2
    25    14    15    1
    26    15    16    1
    27    15    35    1
    28    16    17    2
    29    18    36    1
    30    19    20    1
    31    19    37    1
    32    19    38    1
    33    20    21    1
    34    20    39    1
    35    20    40    1
    36    21    22   am
    37    22    23    2
    38    22    24    1
    39    24    25    1
    40    24    41    1
    41    24    42    1
    42    25    28    1
    43    25    26    1
    44    25    43    1
    45    26    27    1
    46    26    44    1
    47    26    45    1
    48    27    28    1
    49    27    46    1
    50    27    47    1
    51    28    48    1
    52    28    49    1
@<TRIPOS>SUBSTRUCTURE
     1 ZINC001570985666        1 TEMP              0 ****  ****    0 ROOT


##########                                Name:    ZINC001362587626
##########                DOCK_Rotatable_Bonds:                   9
##########                         Heavy_Atoms:                  25
##########                    Molecular_Weight:             346.346
##########                DOCK_Rotatable_Bonds:                   9
##########                       Formal_Charge:        -4.02331e-07
##########                     HBond_Acceptors:                  10
##########                        HBond_Donors:                   2
##########                         Heavy_Atoms:                  25
##########                          Grid_Score:          -34.213726
##########                     Grid_vdw_energy:          -33.276512
##########                      Grid_es_energy:           -0.937216
##########           Internal_energy_repulsive:            5.597280

@<TRIPOS>MOLECULE
ZINC001362587626
 43 45 1 0 0
SMALL
USER_CHARGES


@<TRIPOS>ATOM
      1 C1         -6.1306    1.8970   50.2502 C.3     1  ZINC001362587626   -0.1600
      2 C2         -5.9991    2.3141   51.7163 C.3     1  ZINC001362587626    0.1300
      3 H3         -6.3134    3.3518   51.8284 H       1  ZINC001362587626    0.1200
      4 N4         -4.6030    2.1783   52.1393 N.am    1  ZINC001362587626   -0.7100
      5 C5         -3.7511    3.2123   51.9932 C.2     1  ZINC001362587626    0.5100
      6 O6         -4.1404    4.2557   51.5130 O.2     1  ZINC001362587626   -0.5000
      7 C7         -2.3145    3.0720   52.4267 C.3     1  ZINC001362587626    0.1000
      8 N8         -1.5174    2.5502   51.3137 N.pl3   1  ZINC001362587626   -0.3100
      9 C9         -0.2301    2.8394   51.0478 C.2     1  ZINC001362587626    0.1600
     10 N10         0.0924    2.1652   49.9710 N.2     1  ZINC001362587626   -0.3000
     11 N11        -0.9429    1.4967   49.5953 N.2     1  ZINC001362587626   -0.0700
     12 N12        -1.9159    1.7228   50.4076 N.2     1  ZINC001362587626   -0.0700
     13 C13        -6.8710    1.4300   52.5702 C.2     1  ZINC001362587626    0.5100
     14 O14        -6.4434    0.3720   52.9816 O.2     1  ZINC001362587626   -0.5200
     15 N15        -8.1257    1.8149   52.8768 N.am    1  ZINC001362587626   -0.6600
     16 C16        -8.9363    0.9929   53.6706 C.ar    1  ZINC001362587626    0.1000
     17 C17        -9.5362   -0.1315   53.1195 C.ar    1  ZINC001362587626   -0.1000
     18 C18       -10.3346   -0.9416   53.9026 C.ar    1  ZINC001362587626   -0.1900
     19 C19       -10.5377   -0.6319   55.2395 C.ar    1  ZINC001362587626    0.1200
     20 O20       -11.3244   -1.4297   56.0099 O.3     1  ZINC001362587626   -0.2800
     21 C21       -10.6833   -2.1471   57.0666 C.3     1  ZINC001362587626    0.0100
     22 C22       -10.9244   -1.5441   58.4633 C.3     1  ZINC001362587626    0.0200
     23 O23       -12.0532   -2.4385   58.5305 O.3     1  ZINC001362587626   -0.3700
     24 C24       -11.4887   -3.3581   57.5742 C.3     1  ZINC001362587626    0.0400
     25 C25        -9.9384    0.4911   55.7909 C.ar    1  ZINC001362587626   -0.1300
     26 C26        -9.1354    1.2990   55.0102 C.ar    1  ZINC001362587626   -0.0800
     27 H27        -5.8162    0.8593   50.1380 H       1  ZINC001362587626    0.0700
     28 H28        -7.1693    1.9981   49.9354 H       1  ZINC001362587626    0.0800
     29 H29        -5.5000    2.5365   49.6325 H       1  ZINC001362587626    0.0800
     30 H30        -4.2919    1.3443   52.5245 H       1  ZINC001362587626    0.4100
     31 H31        -1.9281    4.0466   52.7247 H       1  ZINC001362587626    0.1500
     32 H32        -2.2550    2.3841   53.2700 H       1  ZINC001362587626    0.1400
     33 H33         0.4124    3.4994   51.6118 H       1  ZINC001362587626    0.2400
     34 H34        -8.4676    2.6609   52.5478 H       1  ZINC001362587626    0.4100
     35 H35        -9.3788   -0.3723   52.0786 H       1  ZINC001362587626    0.1300
     36 H36       -10.8014   -1.8162   53.4741 H       1  ZINC001362587626    0.1400
     37 H37        -9.6375   -2.3708   56.8562 H       1  ZINC001362587626    0.0900
     38 H38       -10.1382   -1.7712   59.1834 H       1  ZINC001362587626    0.1000
     39 H39       -11.1981   -0.4891   58.4469 H       1  ZINC001362587626    0.1000
     40 H40       -12.2099   -3.7419   56.8527 H       1  ZINC001362587626    0.1000
     41 H41       -10.8749   -4.1392   58.0227 H       1  ZINC001362587626    0.1000
     42 H42       -10.0968    0.7315   56.8318 H       1  ZINC001362587626    0.1400
     43 H43        -8.6684    2.1730   55.4397 H       1  ZINC001362587626    0.1500
@<TRIPOS>BOND
     1     1     2    1
     2     1    27    1
     3     1    28    1
     4     1    29    1
     5     2     3    1
     6     2     4    1
     7     2    13    1
     8     4     5   am
     9     4    30    1
    10     5     6    2
    11     5     7    1
    12     7     8    1
    13     7    31    1
    14     7    32    1
    15     8    12    1
    16     8     9    1
    17     9    10    2
    18     9    33    1
    19    10    11    1
    20    11    12    2
    21    13    14    2
    22    13    15   am
    23    15    16    1
    24    15    34    1
    25    16    26   ar
    26    16    17   ar
    27    17    18   ar
    28    17    35    1
    29    18    19   ar
    30    18    36    1
    31    19    20    1
    32    19    25   ar
    33    20    21    1
    34    21    24    1
    35    21    22    1
    36    21    37    1
    37    22    23    1
    38    22    38    1
    39    22    39    1
    40    23    24    1
    41    24    40    1
    42    24    41    1
    43    25    26   ar
    44    25    42    1
    45    26    43    1
@<TRIPOS>SUBSTRUCTURE
     1 ZINC001362587626        1 TEMP              0 ****  ****    0 ROOT


##########                                Name:    ZINC000435005159
##########                DOCK_Rotatable_Bonds:                  12
##########                         Heavy_Atoms:                  30
##########                    Molecular_Weight:             401.508
##########                DOCK_Rotatable_Bonds:                  12
##########                       Formal_Charge:          -0.0399985
##########                     HBond_Acceptors:                   5
##########                        HBond_Donors:                   2
##########                         Heavy_Atoms:                  30
##########                          Grid_Score:          -34.180592
##########                     Grid_vdw_energy:          -33.721416
##########                      Grid_es_energy:           -0.459174
##########           Internal_energy_repulsive:            9.709861

@<TRIPOS>MOLECULE
ZINC000435005159
 57 59 1 0 0
SMALL
USER_CHARGES


@<TRIPOS>ATOM
      1 O1         -3.4273    5.0137   53.9571 O.2     1  ZINC000435005159   -0.5300
      2 C2         -2.8147    4.0489   54.3631 C.2     1  ZINC000435005159    0.5200
      3 C3         -2.7333    3.7762   55.8430 C.3     1  ZINC000435005159   -0.1400
      4 C4         -1.4259    3.0455   56.1558 C.3     1  ZINC000435005159   -0.1200
      5 C5         -1.1892    3.0483   57.6673 C.3     1  ZINC000435005159    0.1200
      6 N6          0.1680    2.5743   57.9499 N.am    1  ZINC000435005159   -0.7200
      7 C7          0.4153    1.8676   59.0705 C.2     1  ZINC000435005159    0.5600
      8 O8         -0.4875    1.6246   59.8475 O.2     1  ZINC000435005159   -0.5300
      9 C9          1.7844    1.3877   59.3548 C.ar    1  ZINC000435005159   -0.1900
     10 C10         2.0651    0.6976   60.5400 C.ar    1  ZINC000435005159   -0.0200
     11 C11         3.3629    0.2693   60.7580 C.ar    1  ZINC000435005159   -0.1800
     12 C12         4.3319    0.5341   59.8073 C.ar    1  ZINC000435005159    0.1200
     13 N13         4.0383    1.1874   58.6990 N.ar    1  ZINC000435005159   -0.4900
     14 C14         2.8178    1.6100   58.4435 C.ar    1  ZINC000435005159    0.1400
     15 N15        -2.2115    3.2175   53.4905 N.am    1  ZINC000435005159   -0.7300
     16 C16        -2.2906    3.4827   52.0519 C.3     1  ZINC000435005159    0.1900
     17 H17        -2.1247    4.5443   51.8683 H       1  ZINC000435005159    0.1000
     18 C18        -1.2215    2.6660   51.3232 C.3     1  ZINC000435005159   -0.1200
     19 C19         0.0750    3.4749   51.2480 C.3     1  ZINC000435005159   -0.0800
     20 C20         1.1895    2.5923   50.7482 C.ar    1  ZINC000435005159   -0.0800
     21 C21         2.0530    1.9936   51.6466 C.ar    1  ZINC000435005159   -0.1200
     22 C22         3.0753    1.1840   51.1882 C.ar    1  ZINC000435005159   -0.1200
     23 C23         3.2339    0.9726   49.8313 C.ar    1  ZINC000435005159   -0.1200
     24 C24         2.3700    1.5705   48.9330 C.ar    1  ZINC000435005159   -0.1200
     25 C25         1.3450    2.3767   49.3917 C.ar    1  ZINC000435005159   -0.1200
     26 C26        -3.6545    3.0921   51.5434 C.ar    1  ZINC000435005159   -0.1000
     27 C27        -4.0298    1.7618   51.5238 C.ar    1  ZINC000435005159   -0.1100
     28 C28        -5.2807    1.4035   51.0574 C.ar    1  ZINC000435005159   -0.1200
     29 C29        -6.1566    2.3754   50.6110 C.ar    1  ZINC000435005159   -0.1200
     30 C30        -5.7814    3.7057   50.6315 C.ar    1  ZINC000435005159   -0.1200
     31 C31        -4.5321    4.0645   51.1019 C.ar    1  ZINC000435005159   -0.1000
     32 H32        -2.7617    4.7196   56.3884 H       1  ZINC000435005159    0.1000
     33 H33        -3.5772    3.1562   56.1452 H       1  ZINC000435005159    0.1000
     34 H34        -1.4902    2.0173   55.7999 H       1  ZINC000435005159    0.0800
     35 H35        -0.5988    3.5513   55.6575 H       1  ZINC000435005159    0.0800
     36 H36        -1.3076    4.0613   58.0519 H       1  ZINC000435005159    0.0700
     37 H37        -1.9116    2.3897   58.1494 H       1  ZINC000435005159    0.0700
     38 H38         0.8886    2.7692   57.3304 H       1  ZINC000435005159    0.4000
     39 H39         1.2888    0.5048   61.2658 H       1  ZINC000435005159    0.1500
     40 H40         3.6164   -0.2657   61.6612 H       1  ZINC000435005159    0.1500
     41 H41         5.3454    0.2009   59.9748 H       1  ZINC000435005159    0.1600
     42 H42         2.6165    2.1412   57.5250 H       1  ZINC000435005159    0.1600
     43 H43        -1.7248    2.4437   53.8151 H       1  ZINC000435005159    0.4000
     44 H44        -1.0400    1.7384   51.8662 H       1  ZINC000435005159    0.0700
     45 H45        -1.5649    2.4355   50.3147 H       1  ZINC000435005159    0.0800
     46 H46        -0.0589    4.3132   50.5645 H       1  ZINC000435005159    0.0700
     47 H47         0.3265    3.8512   52.2397 H       1  ZINC000435005159    0.0700
     48 H48         1.9290    2.1589   52.7067 H       1  ZINC000435005159    0.1200
     49 H49         3.7503    0.7169   51.8900 H       1  ZINC000435005159    0.1200
     50 H50         4.0331    0.3406   49.4731 H       1  ZINC000435005159    0.1200
     51 H51         2.4941    1.4056   47.8729 H       1  ZINC000435005159    0.1200
     52 H52         0.6700    2.8438   48.6898 H       1  ZINC000435005159    0.1200
     53 H53        -3.3456    1.0024   51.8725 H       1  ZINC000435005159    0.1200
     54 H54        -5.5737    0.3641   51.0413 H       1  ZINC000435005159    0.1200
     55 H55        -7.1336    2.0954   50.2460 H       1  ZINC000435005159    0.1200
     56 H56        -6.4655    4.4651   50.2824 H       1  ZINC000435005159    0.1200
     57 H57        -4.2391    5.1038   51.1180 H       1  ZINC000435005159    0.1200
@<TRIPOS>BOND
     1     1     2    2
     2     2     3    1
     3     2    15   am
     4     3     4    1
     5     3    32    1
     6     3    33    1
     7     4     5    1
     8     4    34    1
     9     4    35    1
    10     5     6    1
    11     5    36    1
    12     5    37    1
    13     6     7   am
    14     6    38    1
    15     7     8    2
    16     7     9    1
    17     9    14   ar
    18     9    10   ar
    19    10    11   ar
    20    10    39    1
    21    11    12   ar
    22    11    40    1
    23    12    13   ar
    24    12    41    1
    25    13    14   ar
    26    14    42    1
    27    15    16    1
    28    15    43    1
    29    16    17    1
    30    16    18    1
    31    16    26    1
    32    18    19    1
    33    18    44    1
    34    18    45    1
    35    19    20    1
    36    19    46    1
    37    19    47    1
    38    20    25   ar
    39    20    21   ar
    40    21    22   ar
    41    21    48    1
    42    22    23   ar
    43    22    49    1
    44    23    24   ar
    45    23    50    1
    46    24    25   ar
    47    24    51    1
    48    25    52    1
    49    26    31   ar
    50    26    27   ar
    51    27    28   ar
    52    27    53    1
    53    28    29   ar
    54    28    54    1
    55    29    30   ar
    56    29    55    1
    57    30    31   ar
    58    30    56    1
    59    31    57    1
@<TRIPOS>SUBSTRUCTURE
     1 ZINC000435005159        1 TEMP              0 ****  ****    0 ROOT


##########                                Name:    ZINC000417533280
##########                DOCK_Rotatable_Bonds:                   9
##########                         Heavy_Atoms:                  26
##########                    Molecular_Weight:             367.439
##########                DOCK_Rotatable_Bonds:                   9
##########                       Formal_Charge:         -0.00999999
##########                     HBond_Acceptors:                   7
##########                        HBond_Donors:                   2
##########                         Heavy_Atoms:                  26
##########                          Grid_Score:          -34.162819
##########                     Grid_vdw_energy:          -34.079720
##########                      Grid_es_energy:           -0.083098
##########           Internal_energy_repulsive:           14.231483

@<TRIPOS>MOLECULE
ZINC000417533280
 53 54 1 0 0
SMALL
USER_CHARGES


@<TRIPOS>ATOM
      1 C1        -11.6416   -1.8706   58.8180 C.3     1  ZINC000417533280   -0.1600
      2 C2        -10.9191   -1.5264   57.5140 C.3     1  ZINC000417533280   -0.1200
      3 C3        -11.9468   -1.3340   56.3970 C.3     1  ZINC000417533280   -0.1200
      4 C4        -11.2243   -1.2220   55.0530 C.3     1  ZINC000417533280   -0.1300
      5 C5        -10.4870    0.1166   54.9803 C.3     1  ZINC000417533280    0.1200
      6 N6         -9.6489    0.1479   53.7792 N.am    1  ZINC000417533280   -0.7300
      7 C7         -8.6074    1.0002   53.7062 C.2     1  ZINC000417533280    0.5200
      8 O8         -8.3632    1.7402   54.6355 O.2     1  ZINC000417533280   -0.5400
      9 C9         -7.7463    1.0336   52.4699 C.3     1  ZINC000417533280   -0.1100
     10 C10        -7.4354    2.4869   52.1043 C.3     1  ZINC000417533280   -0.1300
     11 C11        -6.5889    2.5182   50.8278 C.3     1  ZINC000417533280    0.1300
     12 N12        -5.3999    1.6787   51.0282 N.am    1  ZINC000417533280   -0.6200
     13 C13        -4.1652    2.1742   50.8123 C.2     1  ZINC000417533280    0.7100
     14 O14        -4.0276    3.3261   50.4483 O.2     1  ZINC000417533280   -0.5600
     15 N15        -3.0832    1.3929   51.0000 N.am    1  ZINC000417533280   -0.6800
     16 C16        -1.8002    1.9078   50.7757 C.ar    1  ZINC000417533280    0.1900
     17 C17        -1.1270    1.6077   49.5994 C.ar    1  ZINC000417533280   -0.1100
     18 C18         0.1386    2.1165   49.3786 C.ar    1  ZINC000417533280   -0.1100
     19 C19         0.7363    2.9251   50.3293 C.ar    1  ZINC000417533280    0.0500
     20 F20         1.9737    3.4217   50.1111 F       1  ZINC000417533280   -0.1300
     21 C21         0.0662    3.2267   51.5057 C.ar    1  ZINC000417533280    0.0900
     22 F22         0.6511    4.0164   52.4328 F       1  ZINC000417533280   -0.1200
     23 C23        -1.2026    2.7235   51.7272 C.ar    1  ZINC000417533280   -0.1300
     24 C24        -1.9316    3.0511   53.0049 C.3     1  ZINC000417533280   -0.1200
     25 C25        -5.5823    0.2890   51.4687 C.3     1  ZINC000417533280    0.1100
     26 C26        -6.4401    0.2827   52.7380 C.3     1  ZINC000417533280   -0.1200
     27 H27       -12.3189   -1.0587   59.0833 H       1  ZINC000417533280    0.0500
     28 H28       -12.2113   -2.7904   58.6860 H       1  ZINC000417533280    0.0500
     29 H29       -10.9095   -2.0077   59.6138 H       1  ZINC000417533280    0.0500
     30 H30       -10.3494   -0.6066   57.6460 H       1  ZINC000417533280    0.0600
     31 H31       -10.2419   -2.3383   57.2487 H       1  ZINC000417533280    0.0600
     32 H32       -12.6241   -2.1877   56.3754 H       1  ZINC000417533280    0.0700
     33 H33       -12.5163   -0.4228   56.5803 H       1  ZINC000417533280    0.0700
     34 H34       -10.5073   -2.0374   54.9569 H       1  ZINC000417533280    0.0700
     35 H35       -11.9518   -1.2806   54.2434 H       1  ZINC000417533280    0.0700
     36 H36       -11.2124    0.9292   54.9384 H       1  ZINC000417533280    0.0700
     37 H37        -9.8600    0.2345   55.8641 H       1  ZINC000417533280    0.0700
     38 H38        -9.8434   -0.4448   53.0364 H       1  ZINC000417533280    0.4000
     39 H39        -8.2763    0.5574   51.6452 H       1  ZINC000417533280    0.1000
     40 H40        -8.3671    3.0270   51.9363 H       1  ZINC000417533280    0.0800
     41 H41        -6.8836    2.9568   52.9184 H       1  ZINC000417533280    0.0800
     42 H42        -7.1729    2.1314   49.9926 H       1  ZINC000417533280    0.0700
     43 H43        -6.2818    3.5428   50.6180 H       1  ZINC000417533280    0.1000
     44 H44        -3.1931    0.4740   51.2905 H       1  ZINC000417533280    0.4100
     45 H45        -1.5924    0.9764   48.8569 H       1  ZINC000417533280    0.1700
     46 H46         0.6620    1.8824   48.4634 H       1  ZINC000417533280    0.1500
     47 H47        -2.5149    3.9615   52.8672 H       1  ZINC000417533280    0.0800
     48 H48        -2.5979    2.2283   53.2642 H       1  ZINC000417533280    0.0700
     49 H49        -1.2092    3.2003   53.8073 H       1  ZINC000417533280    0.0800
     50 H50        -6.0841   -0.2796   50.6857 H       1  ZINC000417533280    0.0800
     51 H51        -4.6109   -0.1572   51.6818 H       1  ZINC000417533280    0.0800
     52 H52        -5.8975    0.7733   53.5461 H       1  ZINC000417533280    0.0800
     53 H53        -6.6633   -0.7460   53.0210 H       1  ZINC000417533280    0.0900
@<TRIPOS>BOND
     1     1     2    1
     2     1    27    1
     3     1    28    1
     4     1    29    1
     5     2     3    1
     6     2    30    1
     7     2    31    1
     8     3     4    1
     9     3    32    1
    10     3    33    1
    11     4     5    1
    12     4    34    1
    13     4    35    1
    14     5     6    1
    15     5    36    1
    16     5    37    1
    17     6     7   am
    18     6    38    1
    19     7     8    2
    20     7     9    1
    21     9    26    1
    22     9    10    1
    23     9    39    1
    24    10    11    1
    25    10    40    1
    26    10    41    1
    27    11    12    1
    28    11    42    1
    29    11    43    1
    30    12    13   am
    31    12    25    1
    32    13    14    2
    33    13    15   am
    34    15    16    1
    35    15    44    1
    36    16    23   ar
    37    16    17   ar
    38    17    18   ar
    39    17    45    1
    40    18    19   ar
    41    18    46    1
    42    19    20    1
    43    19    21   ar
    44    21    22    1
    45    21    23   ar
    46    23    24    1
    47    24    47    1
    48    24    48    1
    49    24    49    1
    50    25    26    1
    51    25    50    1
    52    25    51    1
    53    26    52    1
    54    26    53    1
@<TRIPOS>SUBSTRUCTURE
     1 ZINC000417533280        1 TEMP              0 ****  ****    0 ROOT


##########                                Name:    ZINC000457806032
##########                DOCK_Rotatable_Bonds:                   8
##########                         Heavy_Atoms:                  24
##########                    Molecular_Weight:             387.911
##########                DOCK_Rotatable_Bonds:                   8
##########                       Formal_Charge:        -1.49012e-07
##########                     HBond_Acceptors:                   9
##########                        HBond_Donors:                   2
##########                         Heavy_Atoms:                  24
##########                          Grid_Score:          -34.124264
##########                     Grid_vdw_energy:          -33.744240
##########                      Grid_es_energy:           -0.380024
##########           Internal_energy_repulsive:            5.840619

@<TRIPOS>MOLECULE
ZINC000457806032
 42 43 1 0 0
SMALL
USER_CHARGES


@<TRIPOS>ATOM
      1 C1        -11.3369   -0.7824   53.2929 C.3     1  ZINC000457806032    0.0800
      2 N2        -10.8093    0.4936   52.8031 N.am    1  ZINC000457806032   -1.0100
      3 C3        -11.6690    1.3932   52.0299 C.3     1  ZINC000457806032    0.0900
      4 S4         -9.2413    0.9190   53.1236 S.o2    1  ZINC000457806032    2.7900
      5 O5         -8.9936    2.1150   52.3973 O.2     1  ZINC000457806032   -0.9700
      6 O6         -9.0774    0.8165   54.5314 O.2     1  ZINC000457806032   -0.9700
      7 N7         -8.2713   -0.2442   52.4539 N.am    1  ZINC000457806032   -1.1300
      8 C8         -6.8148   -0.1414   52.5737 C.3     1  ZINC000457806032    0.1100
      9 C9         -6.2297    0.3713   51.2563 C.3     1  ZINC000457806032    0.1100
     10 N10        -4.9011    0.9385   51.5000 N.am    1  ZINC000457806032   -0.7300
     11 C11        -4.4844    2.0071   50.7923 C.2     1  ZINC000457806032    0.5800
     12 O12        -5.2120    2.5015   49.9522 O.2     1  ZINC000457806032   -0.5300
     13 C13        -3.1484    2.5760   51.0360 C.2     1  ZINC000457806032   -0.1500
     14 C14        -2.9424    3.6858   51.7989 C.2     1  ZINC000457806032   -0.2200
     15 S15        -1.2804    4.0642   51.8683 S.3     1  ZINC000457806032    0.2400
     16 C16        -0.8672    2.6955   50.8474 C.2     1  ZINC000457806032   -0.1700
     17 C17         0.5036    2.3339   50.4264 C.ar    1  ZINC000457806032   -0.0100
     18 C18         1.5902    2.6292   51.2506 C.ar    1  ZINC000457806032   -0.0900
     19 C19         2.8667    2.2896   50.8527 C.ar    1  ZINC000457806032   -0.1000
     20 C20         3.0708    1.6573   49.6379 C.ar    1  ZINC000457806032   -0.0300
     21 Cl21        4.6800    1.2334   49.1435 Cl      1  ZINC000457806032   -0.0600
     22 C22         1.9965    1.3613   48.8161 C.ar    1  ZINC000457806032   -0.1000
     23 C23         0.7149    1.6910   49.2061 C.ar    1  ZINC000457806032   -0.1000
     24 C24        -1.9793    2.0230   50.5108 C.2     1  ZINC000457806032   -0.0700
     25 H25       -11.1658   -1.5572   52.5456 H       1  ZINC000457806032    0.0600
     26 H26       -10.8306   -1.0533   54.2195 H       1  ZINC000457806032    0.0800
     27 H27       -12.4067   -0.6862   53.4782 H       1  ZINC000457806032    0.0800
     28 H28       -12.1841    2.0746   52.7070 H       1  ZINC000457806032    0.0600
     29 H29       -11.0597    1.9666   51.3313 H       1  ZINC000457806032    0.0700
     30 H30       -12.4028    0.8076   51.4761 H       1  ZINC000457806032    0.0700
     31 H31        -8.6674   -0.9937   51.9825 H       1  ZINC000457806032    0.4200
     32 H32        -6.5643    0.5519   53.3767 H       1  ZINC000457806032    0.0700
     33 H33        -6.3984   -1.1234   52.7985 H       1  ZINC000457806032    0.0900
     34 H34        -6.1481   -0.4543   50.5493 H       1  ZINC000457806032    0.0800
     35 H35        -6.8828    1.1400   50.8434 H       1  ZINC000457806032    0.0800
     36 H36        -4.3213    0.5450   52.1708 H       1  ZINC000457806032    0.4000
     37 H37        -3.7225    4.2476   52.2911 H       1  ZINC000457806032    0.1700
     38 H38         1.4322    3.1230   52.1981 H       1  ZINC000457806032    0.1400
     39 H39         3.7084    2.5176   51.4897 H       1  ZINC000457806032    0.1400
     40 H40         2.1617    0.8681   47.8696 H       1  ZINC000457806032    0.1400
     41 H41        -0.1224    1.4594   48.5644 H       1  ZINC000457806032    0.1300
     42 H42        -1.9710    1.1421   49.8860 H       1  ZINC000457806032    0.1600
@<TRIPOS>BOND
     1     1     2    1
     2     1    25    1
     3     1    26    1
     4     1    27    1
     5     2     3    1
     6     2     4   am
     7     3    28    1
     8     3    29    1
     9     3    30    1
    10     4     5    2
    11     4     6    2
    12     4     7   am
    13     7     8    1
    14     7    31    1
    15     8     9    1
    16     8    32    1
    17     8    33    1
    18     9    10    1
    19     9    34    1
    20     9    35    1
    21    10    11   am
    22    10    36    1
    23    11    12    2
    24    11    13    1
    25    13    24    1
    26    13    14    2
    27    14    15    1
    28    14    37    1
    29    15    16    1
    30    16    17    1
    31    16    24    2
    32    17    23   ar
    33    17    18   ar
    34    18    19   ar
    35    18    38    1
    36    19    20   ar
    37    19    39    1
    38    20    21    1
    39    20    22   ar
    40    22    23   ar
    41    22    40    1
    42    23    41    1
    43    24    42    1
@<TRIPOS>SUBSTRUCTURE
     1 ZINC000457806032        1 TEMP              0 ****  ****    0 ROOT


##########                                Name:    ZINC000538774026
##########                DOCK_Rotatable_Bonds:                  10
##########                         Heavy_Atoms:                  29
##########                    Molecular_Weight:             414.496
##########                DOCK_Rotatable_Bonds:                  10
##########                       Formal_Charge:            0.049999
##########                     HBond_Acceptors:                   9
##########                        HBond_Donors:                   2
##########                         Heavy_Atoms:                  29
##########                          Grid_Score:          -34.124146
##########                     Grid_vdw_energy:          -33.524330
##########                      Grid_es_energy:           -0.599817
##########           Internal_energy_repulsive:           33.437572

@<TRIPOS>MOLECULE
ZINC000538774026
 61 62 1 0 0
SMALL
USER_CHARGES


@<TRIPOS>ATOM
      1 C1         -4.8036    3.7371   52.0468 C.3     1  ZINC000538774026   -0.1500
      2 C2         -4.6038    2.7351   50.9079 C.3     1  ZINC000538774026   -0.1100
      3 C3         -3.7758    1.5506   51.4102 C.3     1  ZINC000538774026   -0.1400
      4 C4         -5.9663    2.2359   50.4230 C.3     1  ZINC000538774026    0.1400
      5 N5         -6.6172    1.4762   51.4932 N.pl3   1  ZINC000538774026   -0.3400
      6 N6         -6.4005    0.1257   51.7950 N.2     1  ZINC000538774026   -0.2500
      7 C7         -7.1586   -0.1963   52.8117 C.2     1  ZINC000538774026    0.0500
      8 C8         -7.8873    0.9386   53.1957 C.2     1  ZINC000538774026    0.0800
      9 N9         -8.8164    1.0095   54.2519 N.am    1  ZINC000538774026   -0.6600
     10 C10        -9.7645    0.0602   54.3802 C.2     1  ZINC000538774026    0.7100
     11 O11        -9.8166   -0.8584   53.5850 O.2     1  ZINC000538774026   -0.5700
     12 N12       -10.6545    0.1289   55.3898 N.am    1  ZINC000538774026   -0.7300
     13 C13       -11.6862   -0.9021   55.5282 C.3     1  ZINC000538774026    0.1600
     14 C14       -11.1171   -2.0921   56.3037 C.3     1  ZINC000538774026   -0.1300
     15 C15       -10.6692   -1.6292   57.6915 C.3     1  ZINC000538774026   -0.1000
     16 C16       -11.8676   -1.0532   58.4484 C.3     1  ZINC000538774026   -0.0800
     17 C17       -11.4263   -0.5973   59.8155 C.2     1  ZINC000538774026    0.4700
     18 O18       -12.2085   -0.0387   60.5476 O.2     1  ZINC000538774026   -0.5000
     19 O19       -10.1645   -0.8119   60.2196 O.3     1  ZINC000538774026   -0.3500
     20 C20        -9.3649    0.3587   60.5341 C.3     1  ZINC000538774026    0.1200
     21 C21        -9.7662    1.5127   59.6132 C.3     1  ZINC000538774026   -0.1800
     22 C22        -9.6025    0.7622   61.9907 C.3     1  ZINC000538774026   -0.1400
     23 C23        -7.8837    0.0344   60.3298 C.3     1  ZINC000538774026   -0.1800
     24 C24       -12.4365    0.1367   57.6730 C.3     1  ZINC000538774026   -0.1100
     25 C25       -12.8846   -0.3261   56.2852 C.3     1  ZINC000538774026   -0.1300
     26 C26        -7.5337    1.9583   52.3726 C.2     1  ZINC000538774026   -0.0500
     27 C27        -8.0674    3.3668   52.4198 C.3     1  ZINC000538774026    0.3500
     28 F28        -9.3603    3.3937   51.8862 F       1  ZINC000538774026   -0.1900
     29 F29        -8.1014    3.8083   53.7470 F       1  ZINC000538774026   -0.1900
     30 H30        -3.8329    4.0927   52.3923 H       1  ZINC000538774026    0.0600
     31 H31        -5.3934    4.5809   51.6889 H       1  ZINC000538774026    0.0600
     32 H32        -5.3268    3.2514   52.8704 H       1  ZINC000538774026    0.0600
     33 H33        -4.0805    3.2208   50.0842 H       1  ZINC000538774026    0.0800
     34 H34        -4.2991    1.0648   52.2338 H       1  ZINC000538774026    0.0600
     35 H35        -3.6336    0.8366   50.5989 H       1  ZINC000538774026    0.0600
     36 H36        -2.8052    1.9062   51.7557 H       1  ZINC000538774026    0.0600
     37 H37        -6.5896    3.0878   50.1512 H       1  ZINC000538774026    0.1000
     38 H38        -5.8294    1.5936   49.5530 H       1  ZINC000538774026    0.1000
     39 H39        -7.2139   -1.1700   53.2756 H       1  ZINC000538774026    0.2100
     40 H40        -8.7740    1.7415   54.8869 H       1  ZINC000538774026    0.4100
     41 H41       -10.6122    0.8609   56.0248 H       1  ZINC000538774026    0.4000
     42 H42       -12.0053   -1.2318   54.5396 H       1  ZINC000538774026    0.1000
     43 H43       -11.8847   -2.8591   56.4067 H       1  ZINC000538774026    0.0800
     44 H44       -10.2634   -2.5024   55.7645 H       1  ZINC000538774026    0.0800
     45 H45       -10.2638   -2.4770   58.2439 H       1  ZINC000538774026    0.0700
     46 H46        -9.9017   -0.8621   57.5885 H       1  ZINC000538774026    0.0700
     47 H47       -12.6350   -1.8203   58.5515 H       1  ZINC000538774026    0.1100
     48 H48       -10.8214    1.7436   59.7587 H       1  ZINC000538774026    0.0600
     49 H49        -9.1659    2.3914   59.8493 H       1  ZINC000538774026    0.0700
     50 H50        -9.5969    1.2252   58.5756 H       1  ZINC000538774026    0.0800
     51 H51        -9.3168   -0.0600   62.6468 H       1  ZINC000538774026    0.0700
     52 H52        -9.0024    1.6409   62.2267 H       1  ZINC000538774026    0.0800
     53 H53       -10.6578    0.9931   62.1362 H       1  ZINC000538774026    0.0700
     54 H54        -7.7145   -0.2531   59.2922 H       1  ZINC000538774026    0.0800
     55 H55        -7.2835    0.9131   60.5659 H       1  ZINC000538774026    0.0700
     56 H56        -7.5979   -0.7878   60.9859 H       1  ZINC000538774026    0.0600
     57 H57       -13.2903    0.5471   58.2124 H       1  ZINC000538774026    0.0800
     58 H58       -11.6690    0.9038   57.5700 H       1  ZINC000538774026    0.0600
     59 H59       -13.2899    0.5216   55.7329 H       1  ZINC000538774026    0.0800
     60 H60       -13.6520   -1.0932   56.3883 H       1  ZINC000538774026    0.0900
     61 H61        -7.4196    4.0206   51.8360 H       1  ZINC000538774026    0.1300
@<TRIPOS>BOND
     1     1     2    1
     2     1    30    1
     3     1    31    1
     4     1    32    1
     5     2     3    1
     6     2     4    1
     7     2    33    1
     8     3    34    1
     9     3    35    1
    10     3    36    1
    11     4     5    1
    12     4    37    1
    13     4    38    1
    14     5    26    1
    15     5     6    1
    16     6     7    2
    17     7     8    1
    18     7    39    1
    19     8     9    1
    20     8    26    2
    21     9    10   am
    22     9    40    1
    23    10    11    2
    24    10    12   am
    25    12    13    1
    26    12    41    1
    27    13    25    1
    28    13    14    1
    29    13    42    1
    30    14    15    1
    31    14    43    1
    32    14    44    1
    33    15    16    1
    34    15    45    1
    35    15    46    1
    36    16    17    1
    37    16    24    1
    38    16    47    1
    39    17    18    2
    40    17    19    1
    41    19    20    1
    42    20    21    1
    43    20    22    1
    44    20    23    1
    45    21    48    1
    46    21    49    1
    47    21    50    1
    48    22    51    1
    49    22    52    1
    50    22    53    1
    51    23    54    1
    52    23    55    1
    53    23    56    1
    54    24    25    1
    55    24    57    1
    56    24    58    1
    57    25    59    1
    58    25    60    1
    59    26    27    1
    60    27    28    1
    61    27    29    1
    62    27    61    1
@<TRIPOS>SUBSTRUCTURE
     1 ZINC000538774026        1 TEMP              0 ****  ****    0 ROOT


##########                                Name:    ZINC001289445798
##########                DOCK_Rotatable_Bonds:                  10
##########                         Heavy_Atoms:                  25
##########                    Molecular_Weight:             352.434
##########                DOCK_Rotatable_Bonds:                  10
##########                       Formal_Charge:          0.00999932
##########                     HBond_Acceptors:                   8
##########                        HBond_Donors:                   2
##########                         Heavy_Atoms:                  25
##########                          Grid_Score:          -34.088928
##########                     Grid_vdw_energy:          -30.821564
##########                      Grid_es_energy:           -3.267364
##########           Internal_energy_repulsive:           18.976538

@<TRIPOS>MOLECULE
ZINC001289445798
 53 54 1 0 0
SMALL
USER_CHARGES


@<TRIPOS>ATOM
      1 C1          2.4524    4.6294   47.5142 C.3     1  ZINC001289445798   -0.1500
      2 C2          3.4981    3.5510   47.8044 C.3     1  ZINC001289445798    0.0600
      3 O3          3.7318    3.4808   49.2124 O.3     1  ZINC001289445798   -0.3700
      4 C4          2.8770    2.5640   49.8985 C.3     1  ZINC001289445798    0.1100
      5 H5          2.4392    1.8695   49.1815 H       1  ZINC001289445798    0.0700
      6 C6          1.7621    3.3376   50.6053 C.3     1  ZINC001289445798   -0.1400
      7 C7          0.4236    2.7934   50.1772 C.2     1  ZINC001289445798    0.5400
      8 O8          0.3340    2.1307   49.1653 O.2     1  ZINC001289445798   -0.5200
      9 N9         -0.6738    3.0431   50.9185 N.am    1  ZINC001289445798   -0.6200
     10 C10        -2.0338    2.5696   50.6226 C.3     1  ZINC001289445798    0.1000
     11 C11        -2.9517    3.0749   51.7555 C.3     1  ZINC001289445798    0.1400
     12 H12        -3.4479    4.0011   51.4657 H       1  ZINC001289445798    0.1200
     13 N13        -3.9365    2.0533   52.1194 N.am    1  ZINC001289445798   -0.7200
     14 C14        -4.9258    1.7350   51.2611 C.2     1  ZINC001289445798    0.6000
     15 O15        -5.0018    2.2970   50.1852 O.2     1  ZINC001289445798   -0.5100
     16 C16        -5.9142    0.7075   51.6259 C.2     1  ZINC001289445798   -0.0500
     17 C17        -6.8200    0.7599   52.6710 C.2     1  ZINC001289445798   -0.1400
     18 C18        -7.5315   -0.4401   52.6045 C.2     1  ZINC001289445798    0.0000
     19 N19        -7.0650   -1.1279   51.5937 N.2     1  ZINC001289445798   -0.2700
     20 N20        -6.1255   -0.4867   50.9971 N.pl3   1  ZINC001289445798   -0.3800
     21 C21        -1.9589    3.3257   52.9212 C.3     1  ZINC001289445798    0.0700
     22 H22        -1.7412    2.4006   53.4549 H       1  ZINC001289445798    0.0900
     23 O23        -2.4587    4.3233   53.8142 O.3     1  ZINC001289445798   -0.3700
     24 C24        -3.0827    3.7944   54.9858 C.3     1  ZINC001289445798    0.0300
     25 C25        -0.7081    3.8309   52.1641 C.3     1  ZINC001289445798    0.0800
     26 C26         3.6910    1.7837   50.9325 C.3     1  ZINC001289445798   -0.1100
     27 C27         3.2287    0.3253   50.9507 C.3     1  ZINC001289445798   -0.1500
     28 C28         5.1749    1.8437   50.5643 C.3     1  ZINC001289445798   -0.1500
     29 H29         2.8158    5.5932   47.8706 H       1  ZINC001289445798    0.0600
     30 H30         2.2740    4.6829   46.4402 H       1  ZINC001289445798    0.0700
     31 H31         1.5222    4.3803   48.0249 H       1  ZINC001289445798    0.0600
     32 H32         3.1348    2.5871   47.4480 H       1  ZINC001289445798    0.0500
     33 H33         4.4283    3.8001   47.2936 H       1  ZINC001289445798    0.0500
     34 H34         1.8710    3.2271   51.6842 H       1  ZINC001289445798    0.1100
     35 H35         1.8272    4.3927   50.3396 H       1  ZINC001289445798    0.1000
     36 H36        -2.3674    2.9741   49.6669 H       1  ZINC001289445798    0.0800
     37 H37        -2.0485    1.4801   50.5917 H       1  ZINC001289445798    0.0800
     38 H38        -3.8768    1.6059   52.9780 H       1  ZINC001289445798    0.4000
     39 H39        -6.9491    1.5590   53.3861 H       1  ZINC001289445798    0.1700
     40 H40        -8.3254   -0.7462   53.2696 H       1  ZINC001289445798    0.1900
     41 H41        -5.6360   -0.8048   50.2225 H       1  ZINC001289445798    0.4400
     42 H42        -3.4351    4.6146   55.6115 H       1  ZINC001289445798    0.0900
     43 H43        -3.9275    3.1692   54.6968 H       1  ZINC001289445798    0.0400
     44 H44        -2.3617    3.1963   55.5431 H       1  ZINC001289445798    0.0500
     45 H45         0.1905    3.6527   52.7547 H       1  ZINC001289445798    0.0900
     46 H46        -0.8072    4.8916   51.9332 H       1  ZINC001289445798    0.0900
     47 H47         3.5434    2.2240   51.9187 H       1  ZINC001289445798    0.0800
     48 H48         3.3765   -0.1150   49.9646 H       1  ZINC001289445798    0.0600
     49 H49         3.8088   -0.2306   51.6874 H       1  ZINC001289445798    0.0600
     50 H50         2.1716    0.2825   51.2131 H       1  ZINC001289445798    0.0600
     51 H51         5.5283    2.8715   50.6466 H       1  ZINC001289445798    0.0600
     52 H52         5.7437    1.2085   51.2432 H       1  ZINC001289445798    0.0600
     53 H53         5.3097    1.4940   49.5408 H       1  ZINC001289445798    0.0500
@<TRIPOS>BOND
     1     1     2    1
     2     1    29    1
     3     1    30    1
     4     1    31    1
     5     2     3    1
     6     2    32    1
     7     2    33    1
     8     3     4    1
     9     4     5    1
    10     4     6    1
    11     4    26    1
    12     6     7    1
    13     6    34    1
    14     6    35    1
    15     7     8    2
    16     7     9   am
    17     9    25    1
    18     9    10    1
    19    10    11    1
    20    10    36    1
    21    10    37    1
    22    11    12    1
    23    11    13    1
    24    11    21    1
    25    13    14   am
    26    13    38    1
    27    14    15    2
    28    14    16    1
    29    16    20    1
    30    16    17    2
    31    17    18    1
    32    17    39    1
    33    18    19    2
    34    18    40    1
    35    19    20    1
    36    20    41    1
    37    21    22    1
    38    21    23    1
    39    21    25    1
    40    23    24    1
    41    24    42    1
    42    24    43    1
    43    24    44    1
    44    25    45    1
    45    25    46    1
    46    26    27    1
    47    26    28    1
    48    26    47    1
    49    27    48    1
    50    27    49    1
    51    27    50    1
    52    28    51    1
    53    28    52    1
    54    28    53    1
@<TRIPOS>SUBSTRUCTURE
     1 ZINC001289445798        1 TEMP              0 ****  ****    0 ROOT


##########                                Name:    ZINC000185180600
##########                DOCK_Rotatable_Bonds:                   7
##########                         Heavy_Atoms:                  26
##########                    Molecular_Weight:             395.953
##########                DOCK_Rotatable_Bonds:                   7
##########                       Formal_Charge:          0.00999977
##########                     HBond_Acceptors:                   7
##########                        HBond_Donors:                   0
##########                         Heavy_Atoms:                  26
##########                          Grid_Score:          -34.080299
##########                     Grid_vdw_energy:          -33.769325
##########                      Grid_es_energy:           -0.310975
##########           Internal_energy_repulsive:           19.567410

@<TRIPOS>MOLECULE
ZINC000185180600
 52 53 1 0 0
SMALL
USER_CHARGES


@<TRIPOS>ATOM
      1 C1        -10.7076    0.0274   57.9541 C.3     1  ZINC000185180600   -0.1500
      2 C2        -10.6979   -0.9684   56.7926 C.3     1  ZINC000185180600   -0.0900
      3 C3        -10.7557   -2.3947   57.3433 C.3     1  ZINC000185180600   -0.1500
      4 C4        -11.9123   -0.7183   55.8962 C.3     1  ZINC000185180600   -0.1300
      5 C5        -11.6272    0.4657   54.9702 C.3     1  ZINC000185180600    0.1300
      6 H6        -11.2208    1.2927   55.5523 H       1  ZINC000185180600    0.1100
      7 C7        -12.9262    0.9082   54.2935 C.3     1  ZINC000185180600   -0.1600
      8 N8        -10.6568    0.0642   53.9487 N.am    1  ZINC000185180600   -0.6000
      9 C9        -11.0288   -0.9240   52.9332 C.3     1  ZINC000185180600    0.0700
     10 C10        -9.4219    0.6040   53.9432 C.2     1  ZINC000185180600    0.5400
     11 O11        -9.1145    1.4232   54.7830 O.2     1  ZINC000185180600   -0.5300
     12 C12        -8.4231    0.1896   52.8936 C.3     1  ZINC000185180600   -0.5000
     13 S13        -7.0857    1.4127   52.8153 S.o     1  ZINC000185180600    1.3200
     14 O14        -7.6128    2.6649   52.3986 O.2     1  ZINC000185180600   -0.8000
     15 C15        -6.0030    0.7510   51.5189 C.3     1  ZINC000185180600   -0.3900
     16 C16        -4.8240    1.6705   51.3313 C.2     1  ZINC000185180600    0.1000
     17 N17        -3.6028    1.3021   51.0381 N.2     1  ZINC000185180600   -0.2800
     18 N18        -2.8072    2.4519   50.9511 N.pl3   1  ZINC000185180600   -0.3200
     19 C19        -1.4370    2.4869   50.6557 C.ar    1  ZINC000185180600    0.1700
     20 C20        -0.5522    3.0992   51.5329 C.ar    1  ZINC000185180600   -0.1300
     21 C21         0.7971    3.1326   51.2398 C.ar    1  ZINC000185180600   -0.0800
     22 C22         1.2671    2.5566   50.0725 C.ar    1  ZINC000185180600   -0.0500
     23 Cl23        2.9636    2.6001   49.7068 Cl      1  ZINC000185180600   -0.0600
     24 C24         0.3870    1.9456   49.1966 C.ar    1  ZINC000185180600   -0.0800
     25 C25        -0.9623    1.9044   49.4883 C.ar    1  ZINC000185180600   -0.1100
     26 C26        -3.5948    3.5218   51.2024 C.2     1  ZINC000185180600    0.0600
     27 C27        -4.8476    3.0657   51.4345 C.2     1  ZINC000185180600   -0.2500
     28 H28        -9.8424   -0.1508   58.5928 H       1  ZINC000185180600    0.0500
     29 H29       -10.6664    1.0435   57.5619 H       1  ZINC000185180600    0.0600
     30 H30       -11.6208   -0.1010   58.5352 H       1  ZINC000185180600    0.0500
     31 H31        -9.7847   -0.8401   56.2116 H       1  ZINC000185180600    0.0700
     32 H32        -9.8503   -2.6008   57.9142 H       1  ZINC000185180600    0.0500
     33 H33       -11.6257   -2.4990   57.9917 H       1  ZINC000185180600    0.0500
     34 H34       -10.8322   -3.1006   56.5164 H       1  ZINC000185180600    0.0500
     35 H35       -12.1118   -1.6075   55.2983 H       1  ZINC000185180600    0.0700
     36 H36       -12.7810   -0.4944   56.5154 H       1  ZINC000185180600    0.0800
     37 H37       -13.3327    0.0812   53.7113 H       1  ZINC000185180600    0.0600
     38 H38       -13.6482    1.2070   55.0535 H       1  ZINC000185180600    0.0700
     39 H39       -12.7232    1.7518   53.6337 H       1  ZINC000185180600    0.0600
     40 H40       -11.4537   -0.4142   52.0685 H       1  ZINC000185180600    0.0600
     41 H41       -10.1435   -1.4816   52.6274 H       1  ZINC000185180600    0.0700
     42 H42       -11.7659   -1.6115   53.3480 H       1  ZINC000185180600    0.0800
     43 H43        -8.0091   -0.7854   53.1508 H       1  ZINC000185180600    0.1500
     44 H44        -8.9181    0.1300   51.9244 H       1  ZINC000185180600    0.1200
     45 H45        -5.6496   -0.2380   51.8105 H       1  ZINC000185180600    0.1400
     46 H46        -6.5586    0.6773   50.5840 H       1  ZINC000185180600    0.1000
     47 H47        -0.9186    3.5495   52.4437 H       1  ZINC000185180600    0.1400
     48 H48         1.4858    3.6088   51.9219 H       1  ZINC000185180600    0.1500
     49 H49         0.7561    1.4972   48.2860 H       1  ZINC000185180600    0.1400
     50 H50        -1.6488    1.4275   48.8044 H       1  ZINC000185180600    0.1500
     51 H51        -3.2814    4.5554   51.2116 H       1  ZINC000185180600    0.1800
     52 H52        -5.7114    3.6711   51.6660 H       1  ZINC000185180600    0.1700
@<TRIPOS>BOND
     1     1     2    1
     2     1    28    1
     3     1    29    1
     4     1    30    1
     5     2     3    1
     6     2     4    1
     7     2    31    1
     8     3    32    1
     9     3    33    1
    10     3    34    1
    11     4     5    1
    12     4    35    1
    13     4    36    1
    14     5     6    1
    15     5     7    1
    16     5     8    1
    17     7    37    1
    18     7    38    1
    19     7    39    1
    20     8     9    1
    21     8    10   am
    22     9    40    1
    23     9    41    1
    24     9    42    1
    25    10    11    2
    26    10    12    1
    27    12    13    1
    28    12    43    1
    29    12    44    1
    30    13    14    2
    31    13    15    1
    32    15    16    1
    33    15    45    1
    34    15    46    1
    35    16    27    1
    36    16    17    2
    37    17    18    1
    38    18    19    1
    39    18    26    1
    40    19    25   ar
    41    19    20   ar
    42    20    21   ar
    43    20    47    1
    44    21    22   ar
    45    21    48    1
    46    22    23    1
    47    22    24   ar
    48    24    25   ar
    49    24    49    1
    50    25    50    1
    51    26    27    2
    52    26    51    1
    53    27    52    1
@<TRIPOS>SUBSTRUCTURE
     1 ZINC000185180600        1 TEMP              0 ****  ****    0 ROOT


##########                                Name:    ZINC000981048968
##########                DOCK_Rotatable_Bonds:                   7
##########                         Heavy_Atoms:                  25
##########                    Molecular_Weight:             344.414
##########                DOCK_Rotatable_Bonds:                   7
##########                       Formal_Charge:                0.02
##########                     HBond_Acceptors:                   7
##########                        HBond_Donors:                   2
##########                         Heavy_Atoms:                  25
##########                          Grid_Score:          -34.070301
##########                     Grid_vdw_energy:          -33.515766
##########                      Grid_es_energy:           -0.554533
##########           Internal_energy_repulsive:            7.208254

@<TRIPOS>MOLECULE
ZINC000981048968
 49 52 1 0 0
SMALL
USER_CHARGES


@<TRIPOS>ATOM
      1 C1          4.2813    1.7497   49.4621 C.3     1  ZINC000981048968   -0.0800
      2 C2          2.8979    2.0365   49.9867 C.2     1  ZINC000981048968   -0.0100
      3 C3          1.7502    1.7136   49.3713 C.2     1  ZINC000981048968   -0.1600
      4 C4          0.6724    2.1878   50.2516 C.2     1  ZINC000981048968   -0.2300
      5 C5         -0.7792    2.0723   50.0244 C.2     1  ZINC000981048968    0.5900
      6 O6         -1.1963    1.6113   48.9792 O.2     1  ZINC000981048968   -0.5300
      7 N7         -1.6444    2.4778   50.9750 N.am    1  ZINC000981048968   -0.7300
      8 C8         -3.0874    2.3646   50.7484 C.3     1  ZINC000981048968    0.1500
      9 H9         -3.2758    2.1799   49.6909 H       1  ZINC000981048968    0.0900
     10 C10        -3.7731    3.6662   51.1689 C.3     1  ZINC000981048968   -0.1300
     11 C11        -5.2801    3.5481   50.9324 C.3     1  ZINC000981048968   -0.1200
     12 C12        -5.8369    2.3878   51.7598 C.3     1  ZINC000981048968   -0.1100
     13 C13        -5.1511    1.0863   51.3394 C.3     1  ZINC000981048968    0.1000
     14 H14        -5.3395    0.9016   50.2818 H       1  ZINC000981048968    0.0500
     15 N15        -5.6857   -0.0276   52.1339 N.3     1  ZINC000981048968   -0.6800
     16 C16        -6.9035   -0.5747   51.5210 C.3     1  ZINC000981048968    0.1500
     17 C17        -8.0926   -0.2462   52.3864 C.2     1  ZINC000981048968    0.1800
     18 N18        -8.1929    0.7558   53.2075 N.2     1  ZINC000981048968   -0.3800
     19 O19        -9.2752    0.7433   53.7551 O.3     1  ZINC000981048968    0.0800
     20 C20        -9.9899   -0.2996   53.3221 C.2     1  ZINC000981048968    0.2100
     21 C21       -11.3848   -0.6729   53.7534 C.3     1  ZINC000981048968   -0.0800
     22 C22       -12.2456    0.4225   54.3858 C.3     1  ZINC000981048968   -0.1600
     23 C23       -12.5519   -0.0693   52.9697 C.3     1  ZINC000981048968   -0.1500
     24 N24        -9.2474   -0.9332   52.4464 N.2     1  ZINC000981048968   -0.4600
     25 C25        -3.6442    1.2044   51.5760 C.3     1  ZINC000981048968   -0.1300
     26 C26         1.2967    2.7562   51.3231 C.2     1  ZINC000981048968    0.0200
     27 O27         2.6173    2.6505   51.1467 O.3     1  ZINC000981048968   -0.1700
     28 H28         5.0225    2.1188   50.1710 H       1  ZINC000981048968    0.0800
     29 H29         4.4055    0.6745   49.3335 H       1  ZINC000981048968    0.0900
     30 H30         4.4166    2.2485   48.5024 H       1  ZINC000981048968    0.0900
     31 H31         1.6404    1.2088   48.4228 H       1  ZINC000981048968    0.1600
     32 H32        -1.3117    2.8443   51.8091 H       1  ZINC000981048968    0.4000
     33 H33        -3.5848    3.8509   52.2265 H       1  ZINC000981048968    0.0700
     34 H34        -3.3765    4.4927   50.5793 H       1  ZINC000981048968    0.0700
     35 H35        -5.7687    4.4753   51.2318 H       1  ZINC000981048968    0.0700
     36 H36        -5.4685    3.3632   49.8747 H       1  ZINC000981048968    0.0600
     37 H37        -5.6485    2.5726   52.8174 H       1  ZINC000981048968    0.0700
     38 H38        -6.9105    2.3036   51.5913 H       1  ZINC000981048968    0.0700
     39 H39        -4.9901   -0.7475   52.2612 H       1  ZINC000981048968    0.3500
     40 H40        -7.0411   -0.1362   50.5326 H       1  ZINC000981048968    0.1100
     41 H41        -6.8091   -1.6566   51.4286 H       1  ZINC000981048968    0.0600
     42 H42       -11.5040   -1.6882   54.1316 H       1  ZINC000981048968    0.1500
     43 H43       -12.9313    0.1280   55.1802 H       1  ZINC000981048968    0.1200
     44 H44       -11.8030    1.4132   54.4899 H       1  ZINC000981048968    0.1100
     45 H45       -12.3109    0.5979   52.1422 H       1  ZINC000981048968    0.1000
     46 H46       -13.4392   -0.6873   52.8326 H       1  ZINC000981048968    0.1200
     47 H47        -3.1556    0.2773   51.2765 H       1  ZINC000981048968    0.0700
     48 H48        -3.4557    1.3892   52.6335 H       1  ZINC000981048968    0.0800
     49 H49         0.8070    3.2110   52.1715 H       1  ZINC000981048968    0.2100
@<TRIPOS>BOND
     1     1     2    1
     2     1    28    1
     3     1    29    1
     4     1    30    1
     5     2    27    1
     6     2     3    2
     7     3     4    1
     8     3    31    1
     9     4     5    1
    10     4    26    2
    11     5     6    2
    12     5     7   am
    13     7     8    1
    14     7    32    1
    15     8     9    1
    16     8    25    1
    17     8    10    1
    18    10    11    1
    19    10    33    1
    20    10    34    1
    21    11    12    1
    22    11    35    1
    23    11    36    1
    24    12    13    1
    25    12    37    1
    26    12    38    1
    27    13    14    1
    28    13    15    1
    29    13    25    1
    30    15    16    1
    31    15    39    1
    32    16    17    1
    33    16    40    1
    34    16    41    1
    35    17    24    1
    36    17    18    2
    37    18    19    1
    38    19    20    1
    39    20    21    1
    40    20    24    2
    41    21    23    1
    42    21    22    1
    43    21    42    1
    44    22    23    1
    45    22    43    1
    46    22    44    1
    47    23    45    1
    48    23    46    1
    49    25    47    1
    50    25    48    1
    51    26    27    1
    52    26    49    1
@<TRIPOS>SUBSTRUCTURE
     1 ZINC000981048968        1 TEMP              0 ****  ****    0 ROOT


##########                                Name:    ZINC000816269301
##########                DOCK_Rotatable_Bonds:                   7
##########                         Heavy_Atoms:                  25
##########                    Molecular_Weight:             358.784
##########                DOCK_Rotatable_Bonds:                   7
##########                       Formal_Charge:           0.0100002
##########                     HBond_Acceptors:                   8
##########                        HBond_Donors:                   1
##########                         Heavy_Atoms:                  25
##########                          Grid_Score:          -34.064671
##########                     Grid_vdw_energy:          -32.590515
##########                      Grid_es_energy:           -1.474157
##########           Internal_energy_repulsive:            7.176255

@<TRIPOS>MOLECULE
ZINC000816269301
 40 42 1 0 0
SMALL
USER_CHARGES


@<TRIPOS>ATOM
      1 C1          1.2171    2.5424   51.8053 C.3     1  ZINC000816269301    0.1000
      2 N2          0.0798    2.3058   50.9126 N.pl3   1  ZINC000816269301   -0.4000
      3 N3          0.1390    1.9431   49.5594 N.2     1  ZINC000816269301    0.0000
      4 N4         -1.0542    1.8214   49.0945 N.2     1  ZINC000816269301   -0.2000
      5 C5         -1.9617    2.0836   50.0651 C.ar    1  ZINC000816269301   -0.0300
      6 C6         -3.3588    2.0929   50.0873 C.ar    1  ZINC000816269301    0.0500
      7 C7         -4.0237    2.4102   51.2658 C.ar    1  ZINC000816269301   -0.1400
      8 C8         -5.4991    2.4217   51.2972 C.2     1  ZINC000816269301    0.5200
      9 O9         -6.0873    3.3059   51.8871 O.2     1  ZINC000816269301   -0.5000
     10 O10        -6.1939    1.4516   50.6715 O.3     1  ZINC000816269301   -0.3500
     11 C11        -6.0865    0.1091   51.2141 C.3     1  ZINC000816269301    0.0500
     12 C12        -6.6114    0.0964   52.6512 C.3     1  ZINC000816269301    0.1200
     13 N13        -7.9350    0.7230   52.6932 N.am    1  ZINC000816269301   -0.7200
     14 C14        -9.0441   -0.0386   52.6136 C.2     1  ZINC000816269301    0.5600
     15 O15        -8.9460   -1.2457   52.5084 O.2     1  ZINC000816269301   -0.5300
     16 C16       -10.3791    0.5936   52.6542 C.ar    1  ZINC000816269301   -0.1300
     17 C17       -11.5300   -0.1945   52.5952 C.ar    1  ZINC000816269301   -0.0700
     18 C18       -12.7731    0.4013   52.6335 C.ar    1  ZINC000816269301   -0.1200
     19 C19       -12.8811    1.7789   52.7302 C.ar    1  ZINC000816269301   -0.0100
     20 Cl20      -14.4495    2.5217   52.7784 Cl      1  ZINC000816269301   -0.0600
     21 C21       -11.7429    2.5660   52.7890 C.ar    1  ZINC000816269301   -0.1200
     22 C22       -10.4945    1.9813   52.7574 C.ar    1  ZINC000816269301   -0.0500
     23 C23        -3.2978    2.7193   52.4256 C.ar    1  ZINC000816269301   -0.0200
     24 C24        -1.9351    2.7119   52.4099 C.ar    1  ZINC000816269301   -0.1300
     25 C25        -1.2505    2.3906   51.2402 C.ar    1  ZINC000816269301    0.1100
     26 H26         1.5004    1.6073   52.2885 H       1  ZINC000816269301    0.0900
     27 H27         2.0596    2.9225   51.2275 H       1  ZINC000816269301    0.1000
     28 H28         0.9375    3.2733   52.5641 H       1  ZINC000816269301    0.1000
     29 H29        -3.9184    1.8553   49.1945 H       1  ZINC000816269301    0.1600
     30 H30        -6.6761   -0.5769   50.6059 H       1  ZINC000816269301    0.0800
     31 H31        -5.0424   -0.2036   51.2059 H       1  ZINC000816269301    0.1000
     32 H32        -6.6856   -0.9330   53.0019 H       1  ZINC000816269301    0.1000
     33 H33        -5.9266    0.6505   53.2931 H       1  ZINC000816269301    0.0900
     34 H34        -8.0132    1.6862   52.7784 H       1  ZINC000816269301    0.4000
     35 H35       -11.4470   -1.2686   52.5194 H       1  ZINC000816269301    0.1400
     36 H36       -13.6640   -0.2073   52.5876 H       1  ZINC000816269301    0.1400
     37 H37       -11.8334    3.6396   52.8644 H       1  ZINC000816269301    0.1400
     38 H38        -9.6078    2.5960   52.8037 H       1  ZINC000816269301    0.1500
     39 H39        -3.8224    2.9652   53.3370 H       1  ZINC000816269301    0.1500
     40 H40        -1.3847    2.9512   53.3079 H       1  ZINC000816269301    0.1400
@<TRIPOS>BOND
     1     1     2    1
     2     1    26    1
     3     1    27    1
     4     1    28    1
     5     2    25    1
     6     2     3    1
     7     3     4    2
     8     4     5    1
     9     5    25   ar
    10     5     6   ar
    11     6     7   ar
    12     6    29    1
    13     7     8    1
    14     7    23   ar
    15     8     9    2
    16     8    10    1
    17    10    11    1
    18    11    12    1
    19    11    30    1
    20    11    31    1
    21    12    13    1
    22    12    32    1
    23    12    33    1
    24    13    14   am
    25    13    34    1
    26    14    15    2
    27    14    16    1
    28    16    22   ar
    29    16    17   ar
    30    17    18   ar
    31    17    35    1
    32    18    19   ar
    33    18    36    1
    34    19    20    1
    35    19    21   ar
    36    21    22   ar
    37    21    37    1
    38    22    38    1
    39    23    24   ar
    40    23    39    1
    41    24    25   ar
    42    24    40    1
@<TRIPOS>SUBSTRUCTURE
     1 ZINC000816269301        1 TEMP              0 ****  ****    0 ROOT


##########                                Name:    ZINC000957079511
##########                DOCK_Rotatable_Bonds:                   8
##########                         Heavy_Atoms:                  25
##########                    Molecular_Weight:             362.453
##########                DOCK_Rotatable_Bonds:                   8
##########                       Formal_Charge:        -4.32134e-07
##########                     HBond_Acceptors:                   8
##########                        HBond_Donors:                   2
##########                         Heavy_Atoms:                  25
##########                          Grid_Score:          -33.990074
##########                     Grid_vdw_energy:          -31.659264
##########                      Grid_es_energy:           -2.330810
##########           Internal_energy_repulsive:            7.742133

@<TRIPOS>MOLECULE
ZINC000957079511
 47 49 1 0 0
SMALL
USER_CHARGES


@<TRIPOS>ATOM
      1 C1         -9.3618    0.9167   53.9888 C.3     1  ZINC000957079511   -0.0700
      2 C2         -8.2805    0.4223   53.0628 C.2     1  ZINC000957079511    0.0300
      3 C3         -7.2132    1.1286   52.6440 C.2     1  ZINC000957079511   -0.0200
      4 C4         -6.8777    2.5514   53.0102 C.3     1  ZINC000957079511   -0.0600
      5 C5         -5.6613    2.9951   52.2391 C.2     1  ZINC000957079511    0.5100
      6 O6         -5.7906    3.5393   51.1630 O.2     1  ZINC000957079511   -0.5200
      7 N7         -4.4296    2.7869   52.7453 N.am    1  ZINC000957079511   -0.7200
      8 C8         -3.2470    3.2166   51.9950 C.3     1  ZINC000957079511    0.1400
      9 H9         -3.4184    4.1821   51.5192 H       1  ZINC000957079511    0.1100
     10 C10        -2.8335    2.1489   50.9514 C.3     1  ZINC000957079511    0.0800
     11 N11        -1.3935    2.3751   50.7305 N.am    1  ZINC000957079511   -0.6200
     12 C12        -0.7047    2.0291   49.6250 C.2     1  ZINC000957079511    0.5400
     13 O13        -1.2718    1.4801   48.7041 O.2     1  ZINC000957079511   -0.5100
     14 C14         0.7702    2.3244   49.5329 C.3     1  ZINC000957079511    0.0500
     15 O15         1.3339    1.5989   48.4384 O.3     1  ZINC000957079511   -0.2800
     16 C16         2.6836    1.6798   48.2723 C.2     1  ZINC000957079511    0.1200
     17 C17         3.3182    1.1041   47.2469 C.2     1  ZINC000957079511   -0.3300
     18 S18         5.0437    1.4226   47.3670 S.3     1  ZINC000957079511    0.1300
     19 C19         4.8025    2.3460   48.8442 C.2     1  ZINC000957079511   -0.1800
     20 C20         3.5041    2.3707   49.1510 C.2     1  ZINC000957079511   -0.1400
     21 C21        -0.8336    3.0413   51.9155 C.3     1  ZINC000957079511    0.1100
     22 C22        -1.9943    3.2616   52.9092 C.3     1  ZINC000957079511   -0.1100
     23 H23        -2.0273    2.4601   53.6474 H       1  ZINC000957079511    0.0900
     24 C24        -1.8676    4.6228   53.5963 C.3     1  ZINC000957079511   -0.1400
     25 N25        -6.4913    0.3057   51.8223 N.pl3   1  ZINC000957079511   -0.5600
     26 C26        -7.1432   -0.8758   51.7674 C.2     1  ZINC000957079511    0.2000
     27 N27        -8.2097   -0.8003   52.5157 N.2     1  ZINC000957079511   -0.4900
     28 H28        -9.0812    0.7051   55.0206 H       1  ZINC000957079511    0.0700
     29 H29        -9.4873    1.9918   53.8597 H       1  ZINC000957079511    0.0600
     30 H30       -10.2989    0.4109   53.7561 H       1  ZINC000957079511    0.0700
     31 H31        -7.7198    3.1983   52.7640 H       1  ZINC000957079511    0.1000
     32 H32        -6.6728    2.6128   54.0790 H       1  ZINC000957079511    0.1200
     33 H33        -4.3262    2.3527   53.6066 H       1  ZINC000957079511    0.4000
     34 H34        -3.0040    1.1471   51.3457 H       1  ZINC000957079511    0.0800
     35 H35        -3.3867    2.2914   50.0232 H       1  ZINC000957079511    0.0800
     36 H36         0.9177    3.3927   49.3750 H       1  ZINC000957079511    0.0900
     37 H37         1.2596    2.0230   50.4591 H       1  ZINC000957079511    0.0900
     38 H38         2.8442    0.5304   46.4642 H       1  ZINC000957079511    0.1700
     39 H39         5.5855    2.8239   49.4139 H       1  ZINC000957079511    0.1800
     40 H40         3.1223    2.8832   50.0217 H       1  ZINC000957079511    0.1500
     41 H41        -0.0708    2.4093   52.3703 H       1  ZINC000957079511    0.0800
     42 H42        -0.4021    4.0011   51.6319 H       1  ZINC000957079511    0.0800
     43 H43        -1.8665    5.4110   52.8434 H       1  ZINC000957079511    0.0600
     44 H44        -2.7097    4.7678   54.2730 H       1  ZINC000957079511    0.0600
     45 H45        -0.9366    4.6590   54.1619 H       1  ZINC000957079511    0.0700
     46 H46        -5.6657    0.5293   51.3648 H       1  ZINC000957079511    0.4200
     47 H47        -6.8313   -1.7411   51.2013 H       1  ZINC000957079511    0.2100
@<TRIPOS>BOND
     1     1     2    1
     2     1    28    1
     3     1    29    1
     4     1    30    1
     5     2    27    1
     6     2     3    2
     7     3     4    1
     8     3    25    1
     9     4     5    1
    10     4    31    1
    11     4    32    1
    12     5     6    2
    13     5     7   am
    14     7     8    1
    15     7    33    1
    16     8     9    1
    17     8    22    1
    18     8    10    1
    19    10    11    1
    20    10    34    1
    21    10    35    1
    22    11    12   am
    23    11    21    1
    24    12    13    2
    25    12    14    1
    26    14    15    1
    27    14    36    1
    28    14    37    1
    29    15    16    1
    30    16    20    1
    31    16    17    2
    32    17    18    1
    33    17    38    1
    34    18    19    1
    35    19    20    2
    36    19    39    1
    37    20    40    1
    38    21    22    1
    39    21    41    1
    40    21    42    1
    41    22    23    1
    42    22    24    1
    43    24    43    1
    44    24    44    1
    45    24    45    1
    46    25    26    1
    47    25    46    1
    48    26    27    2
    49    26    47    1
@<TRIPOS>SUBSTRUCTURE
     1 ZINC000957079511        1 TEMP              0 ****  ****    0 ROOT


##########                                Name:    ZINC000434204837
##########                DOCK_Rotatable_Bonds:                   7
##########                         Heavy_Atoms:                  29
##########                    Molecular_Weight:             406.511
##########                DOCK_Rotatable_Bonds:                   7
##########                       Formal_Charge:          -0.0200002
##########                     HBond_Acceptors:                   8
##########                        HBond_Donors:                   0
##########                         Heavy_Atoms:                  29
##########                          Grid_Score:          -33.987854
##########                     Grid_vdw_energy:          -33.470226
##########                      Grid_es_energy:           -0.517629
##########           Internal_energy_repulsive:           19.239094

@<TRIPOS>MOLECULE
ZINC000434204837
 51 54 1 0 0
SMALL
USER_CHARGES


@<TRIPOS>ATOM
      1 C1         -7.4930    0.4722   63.5883 C.3     1  ZINC000434204837   -0.1300
      2 C2         -8.9831    0.6949   63.6260 C.ar    1  ZINC000434204837   -0.0700
      3 C3         -9.5902    1.1102   64.7960 C.ar    1  ZINC000434204837   -0.1200
      4 C4        -10.9573    1.3145   64.8306 C.ar    1  ZINC000434204837   -0.1100
      5 C5        -11.7165    1.1038   63.6951 C.ar    1  ZINC000434204837   -0.1300
      6 C6        -11.1089    0.6892   62.5244 C.ar    1  ZINC000434204837   -0.0900
      7 C7         -9.7417    0.4891   62.4887 C.ar    1  ZINC000434204837   -0.1000
      8 C8         -9.0795    0.0372   61.2127 C.3     1  ZINC000434204837    0.0100
      9 C9        -10.1178   -0.5377   60.2841 C.2     1  ZINC000434204837    0.2000
     10 N10       -10.3096   -0.2107   59.0287 N.2     1  ZINC000434204837   -0.4600
     11 C11       -11.3331   -0.9749   58.6078 C.2     1  ZINC000434204837    0.1700
     12 C12       -11.9377   -0.9747   57.2274 C.3     1  ZINC000434204837   -0.0300
     13 S13       -10.6353   -0.7101   55.9985 S.3     1  ZINC000434204837    0.0900
     14 C14       -11.6165   -0.5398   54.5448 C.2     1  ZINC000434204837    0.2100
     15 N15       -12.9002   -0.8048   54.4321 N.2     1  ZINC000434204837   -0.3300
     16 N16       -13.3045   -0.5714   53.2358 N.2     1  ZINC000434204837   -0.0200
     17 N17       -12.3298   -0.1479   52.5065 N.2     1  ZINC000434204837   -0.0700
     18 N18       -11.1921   -0.1052   53.3314 N.pl3   1  ZINC000434204837   -0.3100
     19 C19        -9.8959    0.2931   52.9749 C.ar    1  ZINC000434204837    0.1100
     20 C20        -8.8576   -0.6284   52.9848 C.ar    1  ZINC000434204837   -0.1100
     21 C21        -7.5818   -0.2332   52.6327 C.ar    1  ZINC000434204837   -0.0900
     22 C22        -7.3382    1.0790   52.2711 C.ar    1  ZINC000434204837   -0.0600
     23 C23        -5.9451    1.5070   51.8875 C.3     1  ZINC000434204837   -0.0600
     24 C24        -5.9347    1.9593   50.4259 C.3     1  ZINC000434204837   -0.1500
     25 C25        -5.5028    2.6661   52.7831 C.3     1  ZINC000434204837   -0.1500
     26 C26        -8.3703    1.9992   52.2603 C.ar    1  ZINC000434204837   -0.1000
     27 C27        -9.6492    1.6086   52.6060 C.ar    1  ZINC000434204837   -0.0900
     28 N28       -11.7047   -1.7140   59.6100 N.2     1  ZINC000434204837   -0.3600
     29 O29       -11.0155   -1.4822   60.5809 O.3     1  ZINC000434204837    0.0900
     30 H30        -6.9940    1.4000   63.3083 H       1  ZINC000434204837    0.0800
     31 H31        -7.1477    0.1568   64.5729 H       1  ZINC000434204837    0.0700
     32 H32        -7.2596   -0.3010   62.8564 H       1  ZINC000434204837    0.0700
     33 H33        -8.9970    1.2750   65.6833 H       1  ZINC000434204837    0.1300
     34 H34       -11.4318    1.6384   65.7452 H       1  ZINC000434204837    0.1200
     35 H35       -12.7844    1.2627   63.7223 H       1  ZINC000434204837    0.1300
     36 H36       -11.7022    0.5242   61.6372 H       1  ZINC000434204837    0.1300
     37 H37        -8.5948    0.8880   60.7337 H       1  ZINC000434204837    0.1200
     38 H38        -8.3340   -0.7248   61.4403 H       1  ZINC000434204837    0.1200
     39 H39       -12.4221   -1.9334   57.0426 H       1  ZINC000434204837    0.1300
     40 H40       -12.6746   -0.1750   57.1537 H       1  ZINC000434204837    0.1400
     41 H41        -9.0472   -1.6533   53.2678 H       1  ZINC000434204837    0.1400
     42 H42        -6.7738   -0.9496   52.6402 H       1  ZINC000434204837    0.1400
     43 H43        -5.2599    0.6688   52.0133 H       1  ZINC000434204837    0.0800
     44 H44        -6.6200    2.7976   50.3002 H       1  ZINC000434204837    0.0600
     45 H45        -4.9271    2.2689   50.1484 H       1  ZINC000434204837    0.0600
     46 H46        -6.2498    1.1336   49.7878 H       1  ZINC000434204837    0.0600
     47 H47        -5.5102    2.3439   53.8244 H       1  ZINC000434204837    0.0600
     48 H48        -4.4952    2.9756   52.5057 H       1  ZINC000434204837    0.0600
     49 H49        -6.1880    3.5043   52.6573 H       1  ZINC000434204837    0.0600
     50 H50        -8.1768    3.0235   51.9778 H       1  ZINC000434204837    0.1400
     51 H51       -10.4549    2.3277   52.5974 H       1  ZINC000434204837    0.1400
@<TRIPOS>BOND
     1     1     2    1
     2     1    30    1
     3     1    31    1
     4     1    32    1
     5     2     7   ar
     6     2     3   ar
     7     3     4   ar
     8     3    33    1
     9     4     5   ar
    10     4    34    1
    11     5     6   ar
    12     5    35    1
    13     6     7   ar
    14     6    36    1
    15     7     8    1
    16     8     9    1
    17     8    37    1
    18     8    38    1
    19     9    29    1
    20     9    10    2
    21    10    11    1
    22    11    12    1
    23    11    28    2
    24    12    13    1
    25    12    39    1
    26    12    40    1
    27    13    14    1
    28    14    18    1
    29    14    15    2
    30    15    16    1
    31    16    17    2
    32    17    18    1
    33    18    19    1
    34    19    27   ar
    35    19    20   ar
    36    20    21   ar
    37    20    41    1
    38    21    22   ar
    39    21    42    1
    40    22    23    1
    41    22    26   ar
    42    23    24    1
    43    23    25    1
    44    23    43    1
    45    24    44    1
    46    24    45    1
    47    24    46    1
    48    25    47    1
    49    25    48    1
    50    25    49    1
    51    26    27   ar
    52    26    50    1
    53    27    51    1
    54    28    29    1
@<TRIPOS>SUBSTRUCTURE
     1 ZINC000434204837        1 TEMP              0 ****  ****    0 ROOT


##########                                Name:    ZINC000740930783
##########                DOCK_Rotatable_Bonds:                  11
##########                         Heavy_Atoms:                  27
##########                    Molecular_Weight:             413.257
##########                DOCK_Rotatable_Bonds:                  11
##########                       Formal_Charge:          -0.0100004
##########                     HBond_Acceptors:                   9
##########                        HBond_Donors:                   4
##########                         Heavy_Atoms:                  27
##########                          Grid_Score:          -33.923935
##########                     Grid_vdw_energy:          -31.762314
##########                      Grid_es_energy:           -2.161619
##########           Internal_energy_repulsive:           12.592699

@<TRIPOS>MOLECULE
ZINC000740930783
 45 46 1 0 0
SMALL
USER_CHARGES


@<TRIPOS>ATOM
      1 C1         -1.4419    4.7209   54.1769 C.3     1  ZINC000740930783    0.0200
      2 O2         -0.4902    4.4327   53.1505 O.3     1  ZINC000740930783   -0.3000
      3 C3         -0.8966    3.6132   52.1441 C.ar    1  ZINC000740930783    0.1200
      4 C4         -2.2314    3.2795   52.0216 C.ar    1  ZINC000740930783   -0.1400
      5 C5         -2.6462    2.4376   50.9862 C.ar    1  ZINC000740930783   -0.0800
      6 C6         -4.0716    2.0786   50.8510 C.2     1  ZINC000740930783    0.5600
      7 O7         -4.6198    2.1631   49.7690 O.2     1  ZINC000740930783   -0.5300
      8 N8         -4.7653    1.6571   51.9269 N.am    1  ZINC000740930783   -0.7200
      9 C9         -6.1805    1.3024   51.7930 C.3     1  ZINC000740930783    0.0900
     10 C10        -6.5678    0.3228   52.9027 C.3     1  ZINC000740930783    0.1400
     11 H11        -6.0848    0.6189   53.8338 H       1  ZINC000740930783    0.1200
     12 O12        -6.1446   -0.9943   52.5445 O.3     1  ZINC000740930783   -0.5500
     13 C13        -8.0636    0.3373   53.0860 C.ar    1  ZINC000740930783   -0.1100
     14 C14        -8.8519   -0.5728   52.4078 C.ar    1  ZINC000740930783   -0.1000
     15 C15       -10.2242   -0.5596   52.5759 C.ar    1  ZINC000740930783   -0.1100
     16 C16       -10.8084    0.3643   53.4218 C.ar    1  ZINC000740930783   -0.1000
     17 C17       -10.0210    1.2753   54.1007 C.ar    1  ZINC000740930783   -0.1100
     18 C18        -8.6474    1.2584   53.9377 C.ar    1  ZINC000740930783   -0.0300
     19 Cl19       -7.6577    2.4021   54.7899 Cl      1  ZINC000740930783   -0.0600
     20 C20        -1.7094    1.9369   50.0792 C.ar    1  ZINC000740930783   -0.1000
     21 C21        -0.3780    2.2738   50.2068 C.ar    1  ZINC000740930783   -0.0200
     22 Cl22        0.7851    1.6512   49.0785 Cl      1  ZINC000740930783   -0.0300
     23 C23         0.0331    3.1148   51.2329 C.ar    1  ZINC000740930783    0.0900
     24 O24         1.3451    3.4440   51.3547 O.3     1  ZINC000740930783   -0.2900
     25 C25         2.1587    2.5827   52.1536 C.3     1  ZINC000740930783    0.0400
     26 C26         3.5815    3.0789   52.1384 C.2     1  ZINC000740930783    0.5200
     27 N27         3.9443    4.1096   52.9275 N.am    1  ZINC000740930783   -0.8500
     28 O28         4.4002    2.5510   51.4160 O.2     1  ZINC000740930783   -0.5100
     29 H29        -2.3138    5.2060   53.7381 H       1  ZINC000740930783    0.0600
     30 H30        -1.7473    3.7927   54.6601 H       1  ZINC000740930783    0.0600
     31 H31        -0.9905    5.3835   54.9153 H       1  ZINC000740930783    0.1100
     32 H32        -2.9530    3.6681   52.7249 H       1  ZINC000740930783    0.1600
     33 H33        -4.3276    1.5885   52.7898 H       1  ZINC000740930783    0.4100
     34 H34        -6.7898    2.2025   51.8740 H       1  ZINC000740930783    0.0900
     35 H35        -6.3479    0.8363   50.8221 H       1  ZINC000740930783    0.0800
     36 H36        -6.5446   -1.3280   51.7297 H       1  ZINC000740930783    0.3800
     37 H37        -8.3960   -1.2944   51.7462 H       1  ZINC000740930783    0.1300
     38 H38       -10.8399   -1.2711   52.0457 H       1  ZINC000740930783    0.1300
     39 H39       -11.8806    0.3747   53.5521 H       1  ZINC000740930783    0.1400
     40 H40       -10.4777    1.9970   54.7616 H       1  ZINC000740930783    0.1400
     41 H41        -2.0274    1.2858   49.2783 H       1  ZINC000740930783    0.1500
     42 H42         1.7864    2.5783   53.1781 H       1  ZINC000740930783    0.0900
     43 H43         2.1224    1.5709   51.7496 H       1  ZINC000740930783    0.0900
     44 H44         4.8603    4.4284   52.9185 H       1  ZINC000740930783    0.4000
     45 H45         3.2891    4.5327   53.5043 H       1  ZINC000740930783    0.4100
@<TRIPOS>BOND
     1     1     2    1
     2     1    29    1
     3     1    30    1
     4     1    31    1
     5     2     3    1
     6     3    23   ar
     7     3     4   ar
     8     4     5   ar
     9     4    32    1
    10     5     6    1
    11     5    20   ar
    12     6     7    2
    13     6     8   am
    14     8     9    1
    15     8    33    1
    16     9    10    1
    17     9    34    1
    18     9    35    1
    19    10    11    1
    20    10    12    1
    21    10    13    1
    22    12    36    1
    23    13    18   ar
    24    13    14   ar
    25    14    15   ar
    26    14    37    1
    27    15    16   ar
    28    15    38    1
    29    16    17   ar
    30    16    39    1
    31    17    18   ar
    32    17    40    1
    33    18    19    1
    34    20    21   ar
    35    20    41    1
    36    21    22    1
    37    21    23   ar
    38    23    24    1
    39    24    25    1
    40    25    26    1
    41    25    42    1
    42    25    43    1
    43    26    27   am
    44    26    28    2
    45    27    44    1
    46    27    45    1
@<TRIPOS>SUBSTRUCTURE
     1 ZINC000740930783        1 TEMP              0 ****  ****    0 ROOT


##########                                Name:    ZINC000504638019
##########                DOCK_Rotatable_Bonds:                   8
##########                         Heavy_Atoms:                  24
##########                    Molecular_Weight:             328.454
##########                DOCK_Rotatable_Bonds:                   8
##########                       Formal_Charge:        -1.49012e-08
##########                     HBond_Acceptors:                   4
##########                        HBond_Donors:                   1
##########                         Heavy_Atoms:                  24
##########                          Grid_Score:          -33.900570
##########                     Grid_vdw_energy:          -33.498043
##########                      Grid_es_energy:           -0.402526
##########           Internal_energy_repulsive:           15.916048

@<TRIPOS>MOLECULE
ZINC000504638019
 52 53 1 0 0
SMALL
USER_CHARGES


@<TRIPOS>ATOM
      1 C1          0.7417    2.5458   50.5423 C.3     1  ZINC000504638019   -0.1200
      2 C2         -0.7318    2.4880   50.8534 C.ar    1  ZINC000504638019   -0.0900
      3 C3         -1.6404    2.2162   49.8477 C.ar    1  ZINC000504638019   -0.1200
      4 C4         -2.9919    2.1633   50.1330 C.ar    1  ZINC000504638019   -0.1100
      5 C5         -3.4348    2.3817   51.4242 C.ar    1  ZINC000504638019   -0.0900
      6 C6         -4.9082    2.3245   51.7351 C.3     1  ZINC000504638019   -0.0600
      7 H7         -5.0667    2.5563   52.7882 H       1  ZINC000504638019    0.0900
      8 C8         -5.6519    3.3448   50.8707 C.3     1  ZINC000504638019   -0.1500
      9 C9         -5.4382    0.9206   51.4366 C.3     1  ZINC000504638019    0.1300
     10 N10        -6.8807    0.8792   51.6892 N.am    1  ZINC000504638019   -0.7000
     11 C11        -7.4065   -0.1147   52.4323 C.2     1  ZINC000504638019    0.5100
     12 O12        -6.6849   -0.9746   52.8932 O.2     1  ZINC000504638019   -0.5100
     13 C13        -8.8782   -0.1579   52.6885 C.2     1  ZINC000504638019    0.5100
     14 O14        -9.5404   -1.0839   52.2681 O.2     1  ZINC000504638019   -0.5200
     15 N15        -9.4701    0.8314   53.3865 N.am    1  ZINC000504638019   -0.5800
     16 C16        -8.6707    1.9493   53.8941 C.3     1  ZINC000504638019    0.0600
     17 C17       -10.9128    0.7891   53.6376 C.3     1  ZINC000504638019    0.1100
     18 C18       -11.2193   -0.2997   54.6678 C.3     1  ZINC000504638019   -0.1000
     19 H19       -10.7071   -1.2211   54.3906 H       1  ZINC000504638019    0.0800
     20 C20       -12.7285   -0.5466   54.7218 C.3     1  ZINC000504638019   -0.0800
     21 C21       -13.0693   -1.4102   55.9009 C.2     1  ZINC000504638019   -0.1500
     22 C22       -12.2787   -1.6096   56.9063 C.2     1  ZINC000504638019   -0.1600
     23 C23       -10.9071   -1.0131   57.0288 C.3     1  ZINC000504638019   -0.0900
     24 C24       -10.7477    0.1552   56.0548 C.3     1  ZINC000504638019   -0.1100
     25 C25        -2.5261    2.6522   52.4301 C.ar    1  ZINC000504638019   -0.1100
     26 C26        -1.1742    2.7014   52.1455 C.ar    1  ZINC000504638019   -0.1200
     27 H27         1.1772    1.5537   50.6608 H       1  ZINC000504638019    0.0700
     28 H28         0.8833    2.8845   49.5159 H       1  ZINC000504638019    0.0700
     29 H29         1.2302    3.2410   51.2250 H       1  ZINC000504638019    0.0700
     30 H30        -1.2943    2.0456   48.8390 H       1  ZINC000504638019    0.1200
     31 H31        -3.7018    1.9516   49.3471 H       1  ZINC000504638019    0.1200
     32 H32        -6.7176    3.3032   51.0956 H       1  ZINC000504638019    0.0600
     33 H33        -5.2743    4.3449   51.0834 H       1  ZINC000504638019    0.0600
     34 H34        -5.4934    3.1129   49.8176 H       1  ZINC000504638019    0.0600
     35 H35        -5.2450    0.6735   50.3927 H       1  ZINC000504638019    0.0800
     36 H36        -4.9358    0.1981   52.0799 H       1  ZINC000504638019    0.0800
     37 H37        -7.4573    1.5673   51.3218 H       1  ZINC000504638019    0.4100
     38 H38        -8.5502    2.6958   53.1091 H       1  ZINC000504638019    0.0600
     39 H39        -9.1764    2.3991   54.7486 H       1  ZINC000504638019    0.0700
     40 H40        -7.6908    1.5848   54.2023 H       1  ZINC000504638019    0.1100
     41 H41       -11.2435    1.7546   54.0202 H       1  ZINC000504638019    0.0900
     42 H42       -11.4370    0.5677   52.7081 H       1  ZINC000504638019    0.0900
     43 H43       -13.2477    0.4078   54.8110 H       1  ZINC000504638019    0.0800
     44 H44       -13.0463   -1.0442   53.8057 H       1  ZINC000504638019    0.0600
     45 H45       -14.0341   -1.8953   55.9113 H       1  ZINC000504638019    0.1000
     46 H46       -12.6281   -2.2444   57.7072 H       1  ZINC000504638019    0.1000
     47 H47       -10.7574   -0.6577   58.0483 H       1  ZINC000504638019    0.0700
     48 H48       -10.1607   -1.7737   56.8002 H       1  ZINC000504638019    0.0700
     49 H49        -9.7007    0.4554   56.0110 H       1  ZINC000504638019    0.0700
     50 H50       -11.3591    0.9945   56.3860 H       1  ZINC000504638019    0.0700
     51 H51        -2.8720    2.8224   53.4390 H       1  ZINC000504638019    0.1200
     52 H52        -0.4643    2.9126   52.9315 H       1  ZINC000504638019    0.1200
@<TRIPOS>BOND
     1     1     2    1
     2     1    27    1
     3     1    28    1
     4     1    29    1
     5     2    26   ar
     6     2     3   ar
     7     3     4   ar
     8     3    30    1
     9     4     5   ar
    10     4    31    1
    11     5     6    1
    12     5    25   ar
    13     6     7    1
    14     6     8    1
    15     6     9    1
    16     8    32    1
    17     8    33    1
    18     8    34    1
    19     9    10    1
    20     9    35    1
    21     9    36    1
    22    10    11   am
    23    10    37    1
    24    11    12    2
    25    11    13    1
    26    13    14    2
    27    13    15   am
    28    15    16    1
    29    15    17    1
    30    16    38    1
    31    16    39    1
    32    16    40    1
    33    17    18    1
    34    17    41    1
    35    17    42    1
    36    18    19    1
    37    18    24    1
    38    18    20    1
    39    20    21    1
    40    20    43    1
    41    20    44    1
    42    21    22    2
    43    21    45    1
    44    22    23    1
    45    22    46    1
    46    23    24    1
    47    23    47    1
    48    23    48    1
    49    24    49    1
    50    24    50    1
    51    25    26   ar
    52    25    51    1
    53    26    52    1
@<TRIPOS>SUBSTRUCTURE
     1 ZINC000504638019        1 TEMP              0 ****  ****    0 ROOT


##########                                Name:    ZINC000467185792
##########                DOCK_Rotatable_Bonds:                   9
##########                         Heavy_Atoms:                  29
##########                    Molecular_Weight:             412.513
##########                DOCK_Rotatable_Bonds:                   9
##########                       Formal_Charge:                0.04
##########                     HBond_Acceptors:                   8
##########                        HBond_Donors:                   2
##########                         Heavy_Atoms:                  29
##########                          Grid_Score:          -33.899296
##########                     Grid_vdw_energy:          -31.610712
##########                      Grid_es_energy:           -2.288585
##########           Internal_energy_repulsive:           18.048620

@<TRIPOS>MOLECULE
ZINC000467185792
 53 55 1 0 0
SMALL
USER_CHARGES


@<TRIPOS>ATOM
      1 C1         -7.6637    1.0429   66.2385 C.3     1  ZINC000467185792   -0.1500
      2 C2         -8.5077    1.2159   64.9741 C.3     1  ZINC000467185792   -0.1200
      3 C3         -8.8849   -0.1597   64.4207 C.3     1  ZINC000467185792    0.0600
      4 O4         -9.7526    0.0007   63.2966 O.3     1  ZINC000467185792   -0.3100
      5 C5         -9.2614    0.6865   62.2309 C.ar    1  ZINC000467185792    0.1400
      6 C6        -10.0098    1.7062   61.6591 C.ar    1  ZINC000467185792   -0.2100
      7 C7         -9.5141    2.4045   60.5778 C.ar    1  ZINC000467185792   -0.0400
      8 C8         -8.2601    2.0851   60.0593 C.ar    1  ZINC000467185792   -0.0600
      9 C9         -7.7238    2.8343   58.8968 C.2     1  ZINC000467185792    0.1400
     10 C10        -7.8098    4.1732   58.8029 C.2     1  ZINC000467185792   -0.3000
     11 S11        -7.0607    4.6685   57.2867 S.3     1  ZINC000467185792    0.2000
     12 C12        -6.6956    2.9858   56.9169 C.2     1  ZINC000467185792    0.2800
     13 N13        -6.0478    2.5377   55.7738 N.am    1  ZINC000467185792   -0.6100
     14 C14        -6.5209    2.8711   54.5566 C.2     1  ZINC000467185792    0.5900
     15 O15        -7.5154    3.5644   54.4598 O.2     1  ZINC000467185792   -0.4900
     16 C16        -5.8333    2.3955   53.3432 C.2     1  ZINC000467185792   -0.2400
     17 C17        -4.7298    3.0703   52.8248 C.2     1  ZINC000467185792    0.0800
     18 C18        -4.1987    4.3143   53.4893 C.3     1  ZINC000467185792   -0.1200
     19 C19        -3.0909    3.9334   54.4736 C.3     1  ZINC000467185792   -0.1400
     20 C20        -4.1291    2.5580   51.6685 C.2     1  ZINC000467185792    0.0600
     21 C21        -2.9330    3.2575   51.0758 C.3     1  ZINC000467185792   -0.0600
     22 C22        -2.1881    2.2960   50.1477 C.3     1  ZINC000467185792   -0.1500
     23 N23        -4.5954    1.4797   51.0996 N.2     1  ZINC000467185792   -0.1800
     24 N24        -5.6083    0.8346   51.5500 N.am    1  ZINC000467185792   -0.4300
     25 C25        -6.2666    1.2253   52.6581 C.2     1  ZINC000467185792    0.5000
     26 O26        -7.2264    0.5920   53.0626 O.2     1  ZINC000467185792   -0.5300
     27 N27        -7.1218    2.2309   57.8817 N.2     1  ZINC000467185792   -0.5000
     28 C28        -7.5111    1.0605   60.6358 C.ar    1  ZINC000467185792   -0.0600
     29 C29        -8.0102    0.3696   61.7202 C.ar    1  ZINC000467185792   -0.1500
     30 H30        -6.7576    0.4873   65.9972 H       1  ZINC000467185792    0.0600
     31 H31        -7.3949    2.0229   66.6328 H       1  ZINC000467185792    0.0700
     32 H32        -8.2373    0.4953   66.9862 H       1  ZINC000467185792    0.0600
     33 H33        -9.4139    1.7715   65.2155 H       1  ZINC000467185792    0.0700
     34 H34        -7.9340    1.7635   64.2265 H       1  ZINC000467185792    0.0700
     35 H35        -7.9825   -0.6868   64.1109 H       1  ZINC000467185792    0.0600
     36 H36        -9.3945   -0.7351   65.1936 H       1  ZINC000467185792    0.0600
     37 H37       -10.9813    1.9529   62.0611 H       1  ZINC000467185792    0.1300
     38 H38       -10.0969    3.1976   60.1331 H       1  ZINC000467185792    0.1300
     39 H39        -8.2604    4.8314   59.5310 H       1  ZINC000467185792    0.1800
     40 H40        -5.2546    1.9848   55.8510 H       1  ZINC000467185792    0.4400
     41 H41        -3.7963    4.9871   52.7320 H       1  ZINC000467185792    0.0900
     42 H42        -5.0060    4.8126   54.0260 H       1  ZINC000467185792    0.1300
     43 H43        -3.4933    3.2606   55.2309 H       1  ZINC000467185792    0.0600
     44 H44        -2.2835    3.4351   53.9369 H       1  ZINC000467185792    0.0600
     45 H45        -2.7067    4.8332   54.9541 H       1  ZINC000467185792    0.0700
     46 H46        -3.2650    4.1267   50.5079 H       1  ZINC000467185792    0.1000
     47 H47        -2.2668    3.5792   51.8762 H       1  ZINC000467185792    0.1000
     48 H48        -1.3230    2.8020   49.7189 H       1  ZINC000467185792    0.0600
     49 H49        -1.8562    1.4269   50.7155 H       1  ZINC000467185792    0.0600
     50 H50        -2.8543    1.9743   49.3473 H       1  ZINC000467185792    0.0600
     51 H51        -5.9064    0.0394   51.0811 H       1  ZINC000467185792    0.4500
     52 H52        -6.5395    0.8105   60.2361 H       1  ZINC000467185792    0.1300
     53 H53        -7.4303   -0.4241   62.1675 H       1  ZINC000467185792    0.1400
@<TRIPOS>BOND
     1     1     2    1
     2     1    30    1
     3     1    31    1
     4     1    32    1
     5     2     3    1
     6     2    33    1
     7     2    34    1
     8     3     4    1
     9     3    35    1
    10     3    36    1
    11     4     5    1
    12     5    29   ar
    13     5     6   ar
    14     6     7   ar
    15     6    37    1
    16     7     8   ar
    17     7    38    1
    18     8     9    1
    19     8    28   ar
    20     9    27    1
    21     9    10    2
    22    10    11    1
    23    10    39    1
    24    11    12    1
    25    12    13    1
    26    12    27    2
    27    13    14   am
    28    13    40    1
    29    14    15    2
    30    14    16    1
    31    16    25    1
    32    16    17    2
    33    17    18    1
    34    17    20    1
    35    18    19    1
    36    18    41    1
    37    18    42    1
    38    19    43    1
    39    19    44    1
    40    19    45    1
    41    20    21    1
    42    20    23    2
    43    21    22    1
    44    21    46    1
    45    21    47    1
    46    22    48    1
    47    22    49    1
    48    22    50    1
    49    23    24    1
    50    24    25   am
    51    24    51    1
    52    25    26    2
    53    28    29   ar
    54    28    52    1
    55    29    53    1
@<TRIPOS>SUBSTRUCTURE
     1 ZINC000467185792        1 TEMP              0 ****  ****    0 ROOT


##########                                Name:    ZINC000027473870
##########                DOCK_Rotatable_Bonds:                  10
##########                         Heavy_Atoms:                  31
##########                    Molecular_Weight:             422.502
##########                DOCK_Rotatable_Bonds:                  10
##########                       Formal_Charge:        -7.45058e-08
##########                     HBond_Acceptors:                   7
##########                        HBond_Donors:                   1
##########                         Heavy_Atoms:                  31
##########                          Grid_Score:          -33.891460
##########                     Grid_vdw_energy:          -31.040535
##########                      Grid_es_energy:           -2.850926
##########           Internal_energy_repulsive:           19.356266

@<TRIPOS>MOLECULE
ZINC000027473870
 58 60 1 0 0
SMALL
USER_CHARGES


@<TRIPOS>ATOM
      1 C1         -1.6812    5.1378   52.2225 C.3     1  ZINC000027473870   -0.1400
      2 C2         -1.9364    3.6587   52.5192 C.3     1  ZINC000027473870   -0.0800
      3 C3         -1.8059    2.8614   51.2471 C.2     1  ZINC000027473870    0.1700
      4 C4         -0.6347    2.5935   50.5666 C.2     1  ZINC000027473870   -0.2900
      5 C5          0.7194    3.0332   50.9485 C.2     1  ZINC000027473870    0.6000
      6 O6          1.4147    3.6268   50.1467 O.2     1  ZINC000027473870   -0.5400
      7 N7          1.1870    2.7774   52.1864 N.am    1  ZINC000027473870   -0.7200
      8 C8          2.5321    3.2161   52.5666 C.3     1  ZINC000027473870    0.1600
      9 C9          2.5905    3.4221   54.0583 C.ar    1  ZINC000027473870   -0.0900
     10 C10         3.3947    2.6072   54.8352 C.ar    1  ZINC000027473870   -0.1100
     11 C11         3.4524    2.7902   56.2013 C.ar    1  ZINC000027473870   -0.1100
     12 C12         2.6972    3.8002   56.7994 C.ar    1  ZINC000027473870   -0.1200
     13 C13         2.7543    4.0023   58.2630 C.2     1  ZINC000027473870    0.5600
     14 O14         3.2588    5.0101   58.7181 O.2     1  ZINC000027473870   -0.5300
     15 N15         2.2470    3.0689   59.0925 N.am    1  ZINC000027473870   -0.6100
     16 C16         2.3036    3.2691   60.5426 C.3     1  ZINC000027473870    0.1100
     17 C17         0.9896    3.8877   61.0236 C.3     1  ZINC000027473870   -0.1700
     18 C18         1.6389    1.8542   58.5438 C.3     1  ZINC000027473870    0.0900
     19 C19         0.2018    2.1534   58.1124 C.3     1  ZINC000027473870   -0.1800
     20 C20         1.8882    4.6190   56.0099 C.ar    1  ZINC000027473870   -0.0700
     21 C21         1.8438    4.4287   54.6442 C.ar    1  ZINC000027473870   -0.1000
     22 C22        -0.9770    1.8185   49.4354 C.2     1  ZINC000027473870    0.0900
     23 N23        -2.2693    1.6382   49.4447 N.2     1  ZINC000027473870   -0.2800
     24 N24        -2.8082    2.2745   50.5685 N.pl3   1  ZINC000027473870   -0.3100
     25 C25        -4.1647    2.3037   50.9221 C.ar    1  ZINC000027473870    0.1300
     26 C26        -4.9137    3.4532   50.7094 C.ar    1  ZINC000027473870   -0.0900
     27 C27        -6.2498    3.4799   51.0579 C.ar    1  ZINC000027473870   -0.1300
     28 C28        -6.8424    2.3612   51.6192 C.ar    1  ZINC000027473870    0.1100
     29 F29        -8.1497    2.3890   51.9591 F       1  ZINC000027473870   -0.1300
     30 C30        -6.0967    1.2137   51.8321 C.ar    1  ZINC000027473870   -0.1400
     31 C31        -4.7618    1.1814   51.4801 C.ar    1  ZINC000027473870   -0.0700
     32 H32        -1.8612    5.7253   53.1228 H       1  ZINC000027473870    0.0700
     33 H33        -0.6479    5.2711   51.9023 H       1  ZINC000027473870    0.0700
     34 H34        -2.3527    5.4707   51.4311 H       1  ZINC000027473870    0.0500
     35 H35        -1.2073    3.3031   53.2473 H       1  ZINC000027473870    0.1200
     36 H36        -2.9417    3.5372   52.9227 H       1  ZINC000027473870    0.0800
     37 H37         0.6329    2.3029   52.8257 H       1  ZINC000027473870    0.4000
     38 H38         3.2577    2.4564   52.2761 H       1  ZINC000027473870    0.0800
     39 H39         2.7651    4.1532   52.0610 H       1  ZINC000027473870    0.0800
     40 H40         3.9785    1.8261   54.3711 H       1  ZINC000027473870    0.1300
     41 H41         4.0800    2.1530   56.8068 H       1  ZINC000027473870    0.1500
     42 H42         2.4555    2.3093   61.0363 H       1  ZINC000027473870    0.0800
     43 H43         3.1300    3.9372   60.7851 H       1  ZINC000027473870    0.0800
     44 H44         1.0317    4.0367   62.1026 H       1  ZINC000027473870    0.0700
     45 H45         0.8377    4.8476   60.5300 H       1  ZINC000027473870    0.0600
     46 H46         0.1632    3.2196   60.7811 H       1  ZINC000027473870    0.0600
     47 H47         2.2144    1.5173   57.6817 H       1  ZINC000027473870    0.0800
     48 H48         1.6348    1.0742   59.3052 H       1  ZINC000027473870    0.0900
     49 H49        -0.3307    1.2166   57.9482 H       1  ZINC000027473870    0.0700
     50 H50        -0.3004    2.7249   58.8929 H       1  ZINC000027473870    0.0700
     51 H51         0.2128    2.7318   57.1885 H       1  ZINC000027473870    0.0600
     52 H52         1.3012    5.4020   56.4667 H       1  ZINC000027473870    0.1300
     53 H53         1.2185    5.0617   54.0321 H       1  ZINC000027473870    0.1300
     54 H54        -0.2892    1.4418   48.6929 H       1  ZINC000027473870    0.1900
     55 H55        -4.4519    4.3260   50.2721 H       1  ZINC000027473870    0.1500
     56 H56        -6.8327    4.3740   50.8929 H       1  ZINC000027473870    0.1500
     57 H57        -6.5606    0.3423   52.2703 H       1  ZINC000027473870    0.1500
     58 H58        -4.1808    0.2863   51.6459 H       1  ZINC000027473870    0.1400
@<TRIPOS>BOND
     1     1     2    1
     2     1    32    1
     3     1    33    1
     4     1    34    1
     5     2     3    1
     6     2    35    1
     7     2    36    1
     8     3    24    1
     9     3     4    2
    10     4     5    1
    11     4    22    1
    12     5     6    2
    13     5     7   am
    14     7     8    1
    15     7    37    1
    16     8     9    1
    17     8    38    1
    18     8    39    1
    19     9    21   ar
    20     9    10   ar
    21    10    11   ar
    22    10    40    1
    23    11    12   ar
    24    11    41    1
    25    12    13    1
    26    12    20   ar
    27    13    14    2
    28    13    15   am
    29    15    16    1
    30    15    18    1
    31    16    17    1
    32    16    42    1
    33    16    43    1
    34    17    44    1
    35    17    45    1
    36    17    46    1
    37    18    19    1
    38    18    47    1
    39    18    48    1
    40    19    49    1
    41    19    50    1
    42    19    51    1
    43    20    21   ar
    44    20    52    1
    45    21    53    1
    46    22    23    2
    47    22    54    1
    48    23    24    1
    49    24    25    1
    50    25    31   ar
    51    25    26   ar
    52    26    27   ar
    53    26    55    1
    54    27    28   ar
    55    27    56    1
    56    28    29    1
    57    28    30   ar
    58    30    31   ar
    59    30    57    1
    60    31    58    1
@<TRIPOS>SUBSTRUCTURE
     1 ZINC000027473870        1 TEMP              0 ****  ****    0 ROOT


##########                                Name:    ZINC001120957943
##########                DOCK_Rotatable_Bonds:                   4
##########                         Heavy_Atoms:                  27
##########                    Molecular_Weight:             396.802
##########                DOCK_Rotatable_Bonds:                   4
##########                       Formal_Charge:          -0.0199996
##########                     HBond_Acceptors:                  10
##########                        HBond_Donors:                   0
##########                         Heavy_Atoms:                  27
##########                          Grid_Score:          -33.887897
##########                     Grid_vdw_energy:          -33.720276
##########                      Grid_es_energy:           -0.167621
##########           Internal_energy_repulsive:            6.703259

@<TRIPOS>MOLECULE
ZINC001120957943
 43 46 1 0 0
SMALL
USER_CHARGES


@<TRIPOS>ATOM
      1 C1         -6.0840    2.8781   50.1551 C.3     1  ZINC001120957943    0.0900
      2 N2         -5.3104    2.6695   51.3815 N.pl3   1  ZINC001120957943   -0.6000
      3 C3         -5.9974    2.3532   52.6362 C.3     1  ZINC001120957943    0.2200
      4 C4         -6.8065    1.0939   52.4622 C.2     1  ZINC001120957943    0.1600
      5 N5         -6.4012   -0.0207   51.9095 N.2     1  ZINC001120957943   -0.2500
      6 N6         -7.3541   -0.8885   51.9300 N.2     1  ZINC001120957943   -0.2800
      7 C7         -8.4020   -0.3678   52.4927 C.2     1  ZINC001120957943    0.1700
      8 C8         -9.7493   -0.9999   52.7360 C.3     1  ZINC001120957943   -0.0300
      9 C9        -10.7514    0.1185   53.0525 C.3     1  ZINC001120957943   -0.1300
     10 C10       -10.1562    1.0453   54.1165 C.3     1  ZINC001120957943   -0.1500
     11 H11        -9.7960    0.4502   54.9557 H       1  ZINC001120957943    0.1300
     12 C12       -11.2322    2.0170   54.6053 C.3     1  ZINC001120957943    0.4600
     13 F13       -11.6955    2.7801   53.5283 F       1  ZINC001120957943   -0.1700
     14 F14       -12.2961    1.2954   55.1574 F       1  ZINC001120957943   -0.1800
     15 F15       -10.6889    2.8638   55.5774 F       1  ZINC001120957943   -0.1800
     16 C16        -8.9897    1.8370   53.5140 C.3     1  ZINC001120957943    0.1100
     17 N17        -8.0815    0.9013   52.8515 N.pl3   1  ZINC001120957943   -0.4700
     18 C18        -3.9272    2.7715   51.3548 C.ar    1  ZINC001120957943    0.3700
     19 C19        -3.2614    3.4937   52.3605 C.ar    1  ZINC001120957943    0.0500
     20 N20        -1.9546    3.6006   52.3518 N.ar    1  ZINC001120957943   -0.3900
     21 C21        -1.2446    3.0178   51.3777 C.ar    1  ZINC001120957943    0.0400
     22 C22         0.1566    3.1170   51.3460 C.ar    1  ZINC001120957943   -0.0600
     23 C23         0.8541    2.5138   50.3434 C.ar    1  ZINC001120957943   -0.0400
     24 Cl24        2.5852    2.6395   50.3092 Cl      1  ZINC001120957943   -0.0600
     25 C25         0.1971    1.7963   49.3442 C.ar    1  ZINC001120957943   -0.0800
     26 C26        -1.1588    1.6797   49.3436 C.ar    1  ZINC001120957943   -0.0800
     27 C27        -1.9117    2.2890   50.3620 C.ar    1  ZINC001120957943    0.1400
     28 N28        -3.2461    2.1854   50.3885 N.ar    1  ZINC001120957943   -0.4700
     29 H29        -6.3457    3.9324   50.0654 H       1  ZINC001120957943    0.0700
     30 H30        -5.4878    2.5772   49.2938 H       1  ZINC001120957943    0.0800
     31 H31        -6.9944    2.2798   50.1936 H       1  ZINC001120957943    0.0700
     32 H32        -5.2612    2.2060   53.4264 H       1  ZINC001120957943    0.1200
     33 H33        -6.6595    3.1762   52.9053 H       1  ZINC001120957943    0.1000
     34 H34       -10.0692   -1.5391   51.8443 H       1  ZINC001120957943    0.1100
     35 H35        -9.6864   -1.6872   53.5796 H       1  ZINC001120957943    0.1000
     36 H36       -10.9577    0.6893   52.1470 H       1  ZINC001120957943    0.0900
     37 H37       -11.6774   -0.3178   53.4270 H       1  ZINC001120957943    0.1000
     38 H38        -9.3715    2.5563   52.7895 H       1  ZINC001120957943    0.1000
     39 H39        -8.4558    2.3614   54.3065 H       1  ZINC001120957943    0.1100
     40 H40        -3.8316    3.9652   53.1473 H       1  ZINC001120957943    0.1700
     41 H41         0.6785    3.6694   52.1134 H       1  ZINC001120957943    0.1500
     42 H42         0.7723    1.3269   48.5597 H       1  ZINC001120957943    0.1400
     43 H43        -1.6545    1.1212   48.5632 H       1  ZINC001120957943    0.1500
@<TRIPOS>BOND
     1     1     2    1
     2     1    29    1
     3     1    30    1
     4     1    31    1
     5     2     3    1
     6     2    18    1
     7     3     4    1
     8     3    32    1
     9     3    33    1
    10     4    17    1
    11     4     5    2
    12     5     6    1
    13     6     7    2
    14     7    17    1
    15     7     8    1
    16     8     9    1
    17     8    34    1
    18     8    35    1
    19     9    10    1
    20     9    36    1
    21     9    37    1
    22    10    11    1
    23    10    12    1
    24    10    16    1
    25    12    13    1
    26    12    14    1
    27    12    15    1
    28    16    17    1
    29    16    38    1
    30    16    39    1
    31    18    28   ar
    32    18    19   ar
    33    19    20   ar
    34    19    40    1
    35    20    21   ar
    36    21    27   ar
    37    21    22   ar
    38    22    23   ar
    39    22    41    1
    40    23    24    1
    41    23    25   ar
    42    25    26   ar
    43    25    42    1
    44    26    27   ar
    45    26    43    1
    46    27    28   ar
@<TRIPOS>SUBSTRUCTURE
     1 ZINC001120957943        1 TEMP              0 ****  ****    0 ROOT


##########                                Name:    ZINC001078110631
##########                DOCK_Rotatable_Bonds:                   7
##########                         Heavy_Atoms:                  25
##########                    Molecular_Weight:             353.369
##########                DOCK_Rotatable_Bonds:                   7
##########                       Formal_Charge:           0.0100006
##########                     HBond_Acceptors:                   8
##########                        HBond_Donors:                   2
##########                         Heavy_Atoms:                  25
##########                          Grid_Score:          -33.829403
##########                     Grid_vdw_energy:          -32.011414
##########                      Grid_es_energy:           -1.817989
##########           Internal_energy_repulsive:            6.361499

@<TRIPOS>MOLECULE
ZINC001078110631
 46 48 1 0 0
SMALL
USER_CHARGES


@<TRIPOS>ATOM
      1 O1         -4.2691    2.2388   49.4562 O.2     1  ZINC001078110631   -0.5100
      2 C2         -3.7649    1.9632   50.5278 C.2     1  ZINC001078110631    0.5600
      3 N3         -4.4902    1.3302   51.4710 N.am    1  ZINC001078110631   -0.7200
      4 C4         -5.8880    0.9796   51.2073 C.3     1  ZINC001078110631    0.1500
      5 H5         -6.0219    0.7244   50.1562 H       1  ZINC001078110631    0.1200
      6 C6         -6.8169    2.1493   51.5976 C.3     1  ZINC001078110631    0.0300
      7 N7         -8.0219    1.4954   52.1700 N.3     1  ZINC001078110631   -0.5000
      8 C8         -8.7703    2.4268   53.0247 C.3     1  ZINC001078110631    0.0300
      9 C9        -10.2706    2.1749   52.8619 C.3     1  ZINC001078110631    0.1300
     10 N10       -10.7050    1.1681   53.8335 N.am    1  ZINC001078110631   -0.6200
     11 C11       -10.8653    1.4192   55.2706 C.3     1  ZINC001078110631    0.1000
     12 C12       -11.7302    0.2532   55.7987 C.3     1  ZINC001078110631   -0.1300
     13 C13       -11.4259   -0.8576   54.7668 C.3     1  ZINC001078110631   -0.1600
     14 C14       -11.0132   -0.1028   53.5224 C.2     1  ZINC001078110631    0.5200
     15 O15       -10.9610   -0.5771   52.4074 O.2     1  ZINC001078110631   -0.5200
     16 C16        -7.4800    0.3626   52.9639 C.3     1  ZINC001078110631    0.0000
     17 C17        -6.3234   -0.1975   52.1043 C.3     1  ZINC001078110631    0.1000
     18 H18        -5.4972   -0.5138   52.7410 H       1  ZINC001078110631    0.0700
     19 O19        -6.7820   -1.2917   51.3075 O.3     1  ZINC001078110631   -0.5500
     20 C20        -2.3568    2.3165   50.7933 C.ar    1  ZINC001078110631   -0.1900
     21 C21        -2.0193    3.0392   51.9400 C.ar    1  ZINC001078110631   -0.0300
     22 C22        -0.7031    3.3664   52.1831 C.ar    1  ZINC001078110631   -0.1700
     23 C23         0.2877    2.9803   51.2924 C.ar    1  ZINC001078110631    0.1600
     24 F24         1.5760    3.3048   51.5373 F       1  ZINC001078110631   -0.1200
     25 C25        -0.0382    2.2629   50.1529 C.ar    1  ZINC001078110631   -0.2000
     26 C26        -1.3536    1.9240   49.9002 C.ar    1  ZINC001078110631    0.2000
     27 F27        -1.6713    1.2244   48.7890 F       1  ZINC001078110631   -0.1000
     28 H28        -4.0867    1.1067   52.3243 H       1  ZINC001078110631    0.4000
     29 H29        -6.3375    2.7827   52.3439 H       1  ZINC001078110631    0.0500
     30 H30        -7.0836    2.7331   50.7167 H       1  ZINC001078110631    0.1000
     31 H31        -8.4867    2.2723   54.0657 H       1  ZINC001078110631    0.0400
     32 H32        -8.5403    3.4517   52.7337 H       1  ZINC001078110631    0.0800
     33 H33       -10.8156    3.1033   53.0326 H       1  ZINC001078110631    0.0900
     34 H34       -10.4714    1.8162   51.8525 H       1  ZINC001078110631    0.0800
     35 H35        -9.8934    1.4214   55.7639 H       1  ZINC001078110631    0.0700
     36 H36       -11.3738    2.3696   55.4330 H       1  ZINC001078110631    0.0800
     37 H37       -11.4139   -0.0456   56.7980 H       1  ZINC001078110631    0.0900
     38 H38       -12.7880    0.5162   55.7881 H       1  ZINC001078110631    0.0800
     39 H39       -10.6135   -1.4933   55.1190 H       1  ZINC001078110631    0.1100
     40 H40       -12.3188   -1.4513   54.5709 H       1  ZINC001078110631    0.1000
     41 H41        -7.1044    0.7165   53.9239 H       1  ZINC001078110631    0.0600
     42 H42        -8.2459   -0.3988   53.1116 H       1  ZINC001078110631    0.0900
     43 H43        -6.1545   -1.5734   50.6279 H       1  ZINC001078110631    0.3800
     44 H44        -2.7888    3.3412   52.6349 H       1  ZINC001078110631    0.1500
     45 H45        -0.4422    3.9254   53.0696 H       1  ZINC001078110631    0.1500
     46 H46         0.7375    1.9651   49.4629 H       1  ZINC001078110631    0.1600
@<TRIPOS>BOND
     1     1     2    2
     2     2     3   am
     3     2    20    1
     4     3     4    1
     5     3    28    1
     6     4     5    1
     7     4    17    1
     8     4     6    1
     9     6     7    1
    10     6    29    1
    11     6    30    1
    12     7     8    1
    13     7    16    1
    14     8     9    1
    15     8    31    1
    16     8    32    1
    17     9    10    1
    18     9    33    1
    19     9    34    1
    20    10    14   am
    21    10    11    1
    22    11    12    1
    23    11    35    1
    24    11    36    1
    25    12    13    1
    26    12    37    1
    27    12    38    1
    28    13    14    1
    29    13    39    1
    30    13    40    1
    31    14    15    2
    32    16    17    1
    33    16    41    1
    34    16    42    1
    35    17    18    1
    36    17    19    1
    37    19    43    1
    38    20    26   ar
    39    20    21   ar
    40    21    22   ar
    41    21    44    1
    42    22    23   ar
    43    22    45    1
    44    23    24    1
    45    23    25   ar
    46    25    26   ar
    47    25    46    1
    48    26    27    1
@<TRIPOS>SUBSTRUCTURE
     1 ZINC001078110631        1 TEMP              0 ****  ****    0 ROOT


##########                                Name:    ZINC000505965769
##########                DOCK_Rotatable_Bonds:                   9
##########                         Heavy_Atoms:                  29
##########                    Molecular_Weight:              419.88
##########                DOCK_Rotatable_Bonds:                   9
##########                       Formal_Charge:               -0.02
##########                     HBond_Acceptors:                   7
##########                        HBond_Donors:                   1
##########                         Heavy_Atoms:                  29
##########                          Grid_Score:          -33.793571
##########                     Grid_vdw_energy:          -34.029564
##########                      Grid_es_energy:            0.235994
##########           Internal_energy_repulsive:           16.517656

@<TRIPOS>MOLECULE
ZINC000505965769
 52 54 1 0 0
SMALL
USER_CHARGES


@<TRIPOS>ATOM
      1 C1        -11.4511    0.1216   53.4531 C.3     1  ZINC000505965769    0.0200
      2 O2        -10.1864    0.2330   54.1090 O.3     1  ZINC000505965769   -0.3100
      3 C3         -9.1423    0.6730   53.3628 C.ar    1  ZINC000505965769    0.1800
      4 C4         -8.9605    2.0374   53.1622 C.ar    1  ZINC000505965769   -0.2200
      5 C5         -7.9121    2.4896   52.4128 C.ar    1  ZINC000505965769   -0.0200
      6 C6         -7.0143    1.5788   51.8423 C.ar    1  ZINC000505965769   -0.2100
      7 C7         -5.8865    2.0623   51.0371 C.2     1  ZINC000505965769    0.3900
      8 O8         -5.9725    2.0889   49.8273 O.2     1  ZINC000505965769   -0.4400
      9 C9         -4.6219    2.5257   51.7130 C.3     1  ZINC000505965769   -0.1500
     10 C10        -3.4112    1.9190   51.0010 C.3     1  ZINC000505965769   -0.1300
     11 C11        -2.1450    2.4513   51.6209 C.2     1  ZINC000505965769    0.5200
     12 O12        -2.1455    2.8258   52.7744 O.2     1  ZINC000505965769   -0.5300
     13 N13        -1.0120    2.5112   50.8933 N.am    1  ZINC000505965769   -0.7200
     14 C14         0.2185    3.0304   51.4954 C.3     1  ZINC000505965769    0.1900
     15 H15         0.2199    2.8137   52.5637 H       1  ZINC000505965769    0.1100
     16 C16         1.4104    2.3734   50.8481 C.ar    1  ZINC000505965769   -0.1000
     17 C17         1.3406    1.9605   49.5307 C.ar    1  ZINC000505965769   -0.0900
     18 C18         2.4330    1.3580   48.9361 C.ar    1  ZINC000505965769   -0.1500
     19 C19         3.5978    1.1685   49.6602 C.ar    1  ZINC000505965769    0.1000
     20 F20         4.6665    0.5799   49.0798 F       1  ZINC000505965769   -0.1400
     21 C21         3.6667    1.5829   50.9796 C.ar    1  ZINC000505965769   -0.1500
     22 C22         2.5746    2.1896   51.5706 C.ar    1  ZINC000505965769   -0.0600
     23 C23         0.2917    4.5436   51.2818 C.3     1  ZINC000505965769    0.0800
     24 H24         0.2530    4.7772   50.2178 H       1  ZINC000505965769    0.0700
     25 C25        -0.8675    5.2490   52.0298 C.3     1  ZINC000505965769   -0.1500
     26 C26        -0.2669    6.6666   52.2346 C.3     1  ZINC000505965769   -0.1600
     27 C27         1.2329    6.3608   52.4361 C.3     1  ZINC000505965769    0.0500
     28 O28         1.4936    5.0718   51.8649 O.3     1  ZINC000505965769   -0.3700
     29 C29        -7.1965    0.2032   52.0439 C.ar    1  ZINC000505965769    0.0500
     30 Cl30       -6.0897   -0.9349   51.3416 Cl      1  ZINC000505965769   -0.0200
     31 C31        -8.2550   -0.2412   52.8063 C.ar    1  ZINC000505965769   -0.1600
     32 H32       -11.3690   -0.5792   52.6223 H       1  ZINC000505965769    0.0600
     33 H33       -12.1969   -0.2400   54.1611 H       1  ZINC000505965769    0.1100
     34 H34       -11.7521    1.0989   53.0758 H       1  ZINC000505965769    0.0600
     35 H35        -9.6516    2.7421   53.6006 H       1  ZINC000505965769    0.1400
     36 H36        -7.7757    3.5500   52.2598 H       1  ZINC000505965769    0.1500
     37 H37        -4.5629    3.6132   51.6672 H       1  ZINC000505965769    0.1100
     38 H38        -4.6286    2.2057   52.7549 H       1  ZINC000505965769    0.1100
     39 H39        -3.4367    0.8339   51.1015 H       1  ZINC000505965769    0.1000
     40 H40        -3.4391    2.1866   49.9447 H       1  ZINC000505965769    0.1000
     41 H41        -1.0114    2.2105   49.9711 H       1  ZINC000505965769    0.4000
     42 H42         0.4319    2.1083   48.9660 H       1  ZINC000505965769    0.1300
     43 H43         2.3781    1.0348   47.9070 H       1  ZINC000505965769    0.1400
     44 H44         4.5746    1.4353   51.5454 H       1  ZINC000505965769    0.1400
     45 H45         2.6282    2.5133   52.5996 H       1  ZINC000505965769    0.1400
     46 H46        -1.7661    5.2883   51.4141 H       1  ZINC000505965769    0.0700
     47 H47        -1.0695    4.7661   52.9859 H       1  ZINC000505965769    0.1000
     48 H48        -0.4213    7.2847   51.3502 H       1  ZINC000505965769    0.0700
     49 H49        -0.6882    7.1422   53.1201 H       1  ZINC000505965769    0.0800
     50 H50         1.8353    7.1161   51.9313 H       1  ZINC000505965769    0.0700
     51 H51         1.4681    6.3492   53.5004 H       1  ZINC000505965769    0.0700
     52 H52        -8.3996   -1.2997   52.9649 H       1  ZINC000505965769    0.1500
@<TRIPOS>BOND
     1     1     2    1
     2     1    32    1
     3     1    33    1
     4     1    34    1
     5     2     3    1
     6     3    31   ar
     7     3     4   ar
     8     4     5   ar
     9     4    35    1
    10     5     6   ar
    11     5    36    1
    12     6     7    1
    13     6    29   ar
    14     7     8    2
    15     7     9    1
    16     9    10    1
    17     9    37    1
    18     9    38    1
    19    10    11    1
    20    10    39    1
    21    10    40    1
    22    11    12    2
    23    11    13   am
    24    13    14    1
    25    13    41    1
    26    14    15    1
    27    14    16    1
    28    14    23    1
    29    16    22   ar
    30    16    17   ar
    31    17    18   ar
    32    17    42    1
    33    18    19   ar
    34    18    43    1
    35    19    20    1
    36    19    21   ar
    37    21    22   ar
    38    21    44    1
    39    22    45    1
    40    23    24    1
    41    23    28    1
    42    23    25    1
    43    25    26    1
    44    25    46    1
    45    25    47    1
    46    26    27    1
    47    26    48    1
    48    26    49    1
    49    27    28    1
    50    27    50    1
    51    27    51    1
    52    29    30    1
    53    29    31   ar
    54    31    52    1
@<TRIPOS>SUBSTRUCTURE
     1 ZINC000505965769        1 TEMP              0 ****  ****    0 ROOT


##########                                Name:    ZINC000507831344
##########                DOCK_Rotatable_Bonds:                   6
##########                         Heavy_Atoms:                  31
##########                    Molecular_Weight:              422.53
##########                DOCK_Rotatable_Bonds:                   6
##########                       Formal_Charge:          -0.0200002
##########                     HBond_Acceptors:                   8
##########                        HBond_Donors:                   2
##########                         Heavy_Atoms:                  31
##########                          Grid_Score:          -33.792915
##########                     Grid_vdw_energy:          -33.257927
##########                      Grid_es_energy:           -0.534988
##########           Internal_energy_repulsive:           29.253788

@<TRIPOS>MOLECULE
ZINC000507831344
 61 64 1 0 0
SMALL
USER_CHARGES


@<TRIPOS>ATOM
      1 C1          1.7397    3.4620   52.1507 C.3     1  ZINC000507831344   -0.1000
      2 C2          0.9172    2.8227   51.0616 C.ar    1  ZINC000507831344   -0.0800
      3 C3         -0.4178    2.5312   51.2724 C.ar    1  ZINC000507831344   -0.0800
      4 C4         -1.1400    1.9404   50.2366 C.ar    1  ZINC000507831344    0.0900
      5 N5         -2.4960    1.6277   50.4056 N.am    1  ZINC000507831344   -0.6700
      6 C6         -3.3725    2.5925   50.7482 C.2     1  ZINC000507831344    0.5100
      7 O7         -2.9880    3.7315   50.9103 O.2     1  ZINC000507831344   -0.5100
      8 C8         -4.8303    2.2564   50.9299 C.3     1  ZINC000507831344   -0.1400
      9 C9         -5.0639    1.7542   52.3561 C.3     1  ZINC000507831344   -0.0500
     10 C10        -6.5422    1.5786   52.5909 C.2     1  ZINC000507831344   -0.2200
     11 C11        -7.1531    0.4074   52.2711 C.2     1  ZINC000507831344    0.2100
     12 C12        -6.3606   -0.7290   51.6782 C.3     1  ZINC000507831344   -0.1400
     13 N13        -8.4879    0.2733   52.4929 N.pl3   1  ZINC000507831344   -0.3000
     14 N14        -9.3750   -0.7869   52.2712 N.am    1  ZINC000507831344   -0.5100
     15 C15       -10.6042   -0.4045   52.6672 C.2     1  ZINC000507831344    0.5500
     16 O16       -11.6155   -1.0855   52.6148 O.2     1  ZINC000507831344   -0.5400
     17 C17       -10.5243    0.9018   53.1471 C.2     1  ZINC000507831344   -0.3500
     18 C18        -9.1987    1.3151   53.0337 C.2     1  ZINC000507831344    0.3500
     19 N19        -8.5883    2.4643   53.3457 N.2     1  ZINC000507831344   -0.4800
     20 C20        -7.2971    2.6180   53.1457 C.2     1  ZINC000507831344    0.2500
     21 C21        -6.6311    3.9212   53.5053 C.3     1  ZINC000507831344   -0.1200
     22 C22        -0.5011    1.6664   49.0373 C.ar    1  ZINC000507831344    0.0800
     23 N23         0.7750    1.9581   48.8704 N.ar    1  ZINC000507831344   -0.4900
     24 C24         1.4901    2.5240   49.8296 C.ar    1  ZINC000507831344    0.2800
     25 N25         2.8335    2.8137   49.6070 N.3     1  ZINC000507831344   -0.4800
     26 C26         3.6861    1.6794   49.9849 C.3     1  ZINC000507831344    0.0600
     27 C27         5.1574    2.0834   49.8651 C.3     1  ZINC000507831344   -0.1200
     28 C28         5.4494    2.5072   48.4230 C.3     1  ZINC000507831344   -0.1200
     29 C29         4.5150    3.6576   48.0383 C.3     1  ZINC000507831344   -0.1100
     30 C30         3.0624    3.2081   48.2111 C.3     1  ZINC000507831344    0.0900
     31 H31         2.8647    2.3591   47.5567 H       1  ZINC000507831344    0.0600
     32 C32         2.1252    4.3614   47.8471 C.3     1  ZINC000507831344   -0.1400
     33 H33         1.7480    4.5432   52.0125 H       1  ZINC000507831344    0.0700
     34 H34         1.3056    3.2230   53.1215 H       1  ZINC000507831344    0.0600
     35 H35         2.7604    3.0820   52.1056 H       1  ZINC000507831344    0.0800
     36 H36        -0.8898    2.7554   52.2175 H       1  ZINC000507831344    0.1500
     37 H37        -2.8036    0.7169   50.2762 H       1  ZINC000507831344    0.4100
     38 H38        -5.4330    3.1476   50.7552 H       1  ZINC000507831344    0.1000
     39 H39        -5.1154    1.4800   50.2200 H       1  ZINC000507831344    0.1000
     40 H40        -4.5585    0.7980   52.4920 H       1  ZINC000507831344    0.0900
     41 H41        -4.6668    2.4793   53.0663 H       1  ZINC000507831344    0.1000
     42 H42        -5.9771   -1.3611   52.4791 H       1  ZINC000507831344    0.1000
     43 H43        -7.0042   -1.3193   51.0259 H       1  ZINC000507831344    0.0800
     44 H44        -5.5273   -0.3284   51.1008 H       1  ZINC000507831344    0.1100
     45 H45        -9.1437   -1.6507   51.8954 H       1  ZINC000507831344    0.4400
     46 H46       -11.3432    1.4884   53.5367 H       1  ZINC000507831344    0.1700
     47 H47        -7.3730    4.6078   53.9133 H       1  ZINC000507831344    0.0900
     48 H48        -5.8558    3.7398   54.2497 H       1  ZINC000507831344    0.1000
     49 H49        -6.1830    4.3585   52.6131 H       1  ZINC000507831344    0.0900
     50 H50        -1.0539    1.2086   48.2304 H       1  ZINC000507831344    0.1600
     51 H51         3.4714    1.3907   51.0138 H       1  ZINC000507831344    0.0700
     52 H52         3.4855    0.8376   49.3223 H       1  ZINC000507831344    0.0500
     53 H53         5.3620    2.9163   50.5378 H       1  ZINC000507831344    0.0700
     54 H54         5.7901    1.2364   50.1307 H       1  ZINC000507831344    0.0700
     55 H55         6.4852    2.8369   48.3429 H       1  ZINC000507831344    0.0700
     56 H56         5.2822    1.6629   47.7542 H       1  ZINC000507831344    0.0600
     57 H57         4.7096    4.5154   48.6821 H       1  ZINC000507831344    0.0700
     58 H58         4.6888    3.9355   46.9987 H       1  ZINC000507831344    0.0700
     59 H59         2.2320    4.5960   46.7881 H       1  ZINC000507831344    0.0600
     60 H60         1.0949    4.0710   48.0529 H       1  ZINC000507831344    0.0500
     61 H61         2.3809    5.2387   48.4413 H       1  ZINC000507831344    0.0600
@<TRIPOS>BOND
     1     1     2    1
     2     1    33    1
     3     1    34    1
     4     1    35    1
     5     2    24   ar
     6     2     3   ar
     7     3     4   ar
     8     3    36    1
     9     4     5    1
    10     4    22   ar
    11     5     6   am
    12     5    37    1
    13     6     7    2
    14     6     8    1
    15     8     9    1
    16     8    38    1
    17     8    39    1
    18     9    10    1
    19     9    40    1
    20     9    41    1
    21    10    20    1
    22    10    11    2
    23    11    12    1
    24    11    13    1
    25    12    42    1
    26    12    43    1
    27    12    44    1
    28    13    18    1
    29    13    14    1
    30    14    15   am
    31    14    45    1
    32    15    16    2
    33    15    17    1
    34    17    18    2
    35    17    46    1
    36    18    19    1
    37    19    20    2
    38    20    21    1
    39    21    47    1
    40    21    48    1
    41    21    49    1
    42    22    23   ar
    43    22    50    1
    44    23    24   ar
    45    24    25    1
    46    25    30    1
    47    25    26    1
    48    26    27    1
    49    26    51    1
    50    26    52    1
    51    27    28    1
    52    27    53    1
    53    27    54    1
    54    28    29    1
    55    28    55    1
    56    28    56    1
    57    29    30    1
    58    29    57    1
    59    29    58    1
    60    30    31    1
    61    30    32    1
    62    32    59    1
    63    32    60    1
    64    32    61    1
@<TRIPOS>SUBSTRUCTURE
     1 ZINC000507831344        1 TEMP              0 ****  ****    0 ROOT


##########                                Name:    ZINC001757264545
##########                DOCK_Rotatable_Bonds:                  11
##########                         Heavy_Atoms:                  25
##########                    Molecular_Weight:             344.497
##########                DOCK_Rotatable_Bonds:                  11
##########                       Formal_Charge:          0.00999946
##########                     HBond_Acceptors:                   4
##########                        HBond_Donors:                   2
##########                         Heavy_Atoms:                  25
##########                          Grid_Score:          -33.733837
##########                     Grid_vdw_energy:          -31.416449
##########                      Grid_es_energy:           -2.317388
##########           Internal_energy_repulsive:            9.540431

@<TRIPOS>MOLECULE
ZINC001757264545
 57 57 1 0 0
SMALL
USER_CHARGES


@<TRIPOS>ATOM
      1 C1          1.9765    2.6008   57.1957 C.1     1  ZINC001757264545   -0.2100
      2 C2          0.9367    2.1470   57.4980 C.1     1  ZINC001757264545   -0.1900
      3 C3         -0.3669    1.5781   57.8768 C.3     1  ZINC001757264545   -0.0100
      4 C4         -1.4330    2.6749   57.8371 C.3     1  ZINC001757264545   -0.1200
      5 C5         -1.5207    3.2497   56.4220 C.3     1  ZINC001757264545   -0.1200
      6 C6         -2.4933    4.4307   56.4106 C.3     1  ZINC001757264545   -0.1000
      7 C7         -3.9304    3.9086   56.4652 C.3     1  ZINC001757264545   -0.1400
      8 C8         -4.6158    4.1856   55.1520 C.2     1  ZINC001757264545    0.5100
      9 O9         -5.2017    5.2341   54.9831 O.2     1  ZINC001757264545   -0.5400
     10 N10        -4.5778    3.2684   54.1652 N.am    1  ZINC001757264545   -0.7300
     11 C11        -5.2426    3.5385   52.8881 C.3     1  ZINC001757264545    0.1400
     12 H12        -5.1180    4.5899   52.6287 H       1  ZINC001757264545    0.1000
     13 C13        -6.7334    3.2169   53.0110 C.3     1  ZINC001757264545   -0.1300
     14 C14        -7.4278    3.4990   51.6771 C.3     1  ZINC001757264545   -0.1200
     15 C15        -6.8063    2.6271   50.5842 C.3     1  ZINC001757264545   -0.1200
     16 C16        -5.3156    2.9487   50.4613 C.3     1  ZINC001757264545   -0.1300
     17 C17        -4.6213    2.6665   51.7952 C.3     1  ZINC001757264545    0.1400
     18 H18        -4.7460    1.6152   52.0545 H       1  ZINC001757264545    0.1000
     19 N19        -3.1939    2.9745   51.6774 N.am    1  ZINC001757264545   -0.7200
     20 C20        -2.3645    2.1034   51.0691 C.2     1  ZINC001757264545    0.6400
     21 O21        -2.8014    1.0626   50.6167 O.2     1  ZINC001757264545   -0.5200
     22 C22        -0.9689    2.4037   50.9555 C.1     1  ZINC001757264545   -0.2300
     23 C23         0.1752    2.6498   50.8624 C.1     1  ZINC001757264545   -0.0500
     24 C24         1.6098    2.9584   50.7457 C.3     1  ZINC001757264545    0.0300
     25 C25         1.8321    4.4516   50.9942 C.3     1  ZINC001757264545   -0.1400
     26 C26         2.3917    2.1471   51.7806 C.3     1  ZINC001757264545   -0.1400
     27 C27         2.0964    2.5972   49.3408 C.3     1  ZINC001757264545   -0.1400
     28 H28         2.9064    3.0066   56.9255 H       1  ZINC001757264545    0.2200
     29 H29        -0.3052    1.1678   58.8847 H       1  ZINC001757264545    0.0900
     30 H30        -0.6345    0.7858   57.1777 H       1  ZINC001757264545    0.0900
     31 H31        -1.1647    3.4678   58.5353 H       1  ZINC001757264545    0.0700
     32 H32        -2.3980    2.2539   58.1188 H       1  ZINC001757264545    0.0700
     33 H33        -1.8769    2.4792   55.7382 H       1  ZINC001757264545    0.0700
     34 H34        -0.5341    3.5884   56.1055 H       1  ZINC001757264545    0.0700
     35 H35        -2.3514    5.0095   55.4979 H       1  ZINC001757264545    0.0700
     36 H36        -2.3042    5.0655   57.2763 H       1  ZINC001757264545    0.0700
     37 H37        -4.4690    4.4102   57.2691 H       1  ZINC001757264545    0.0900
     38 H38        -3.9198    2.8344   56.6500 H       1  ZINC001757264545    0.0900
     39 H39        -4.1103    2.4294   54.3007 H       1  ZINC001757264545    0.4000
     40 H40        -6.8581    2.1656   53.2704 H       1  ZINC001757264545    0.0700
     41 H41        -7.1761    3.8382   53.7896 H       1  ZINC001757264545    0.0800
     42 H42        -8.4898    3.2699   51.7647 H       1  ZINC001757264545    0.0700
     43 H43        -7.3030    4.5504   51.4178 H       1  ZINC001757264545    0.0700
     44 H44        -7.3011    2.8280   49.6340 H       1  ZINC001757264545    0.0700
     45 H45        -6.9310    1.5757   50.8436 H       1  ZINC001757264545    0.0700
     46 H46        -5.1909    4.0000   50.2020 H       1  ZINC001757264545    0.0700
     47 H47        -4.8729    2.3274   49.6827 H       1  ZINC001757264545    0.0800
     48 H48        -2.8456    3.8052   52.0373 H       1  ZINC001757264545    0.4000
     49 H49         1.4854    4.7089   51.9951 H       1  ZINC001757264545    0.0600
     50 H50         2.8944    4.6801   50.9078 H       1  ZINC001757264545    0.0700
     51 H51         1.2749    5.0295   50.2569 H       1  ZINC001757264545    0.0600
     52 H52         2.2334    1.0834   51.6035 H       1  ZINC001757264545    0.0600
     53 H53         3.4540    2.3755   51.6942 H       1  ZINC001757264545    0.0700
     54 H54         2.0450    2.4044   52.7814 H       1  ZINC001757264545    0.0600
     55 H55         1.5392    3.1752   48.6035 H       1  ZINC001757264545    0.0600
     56 H56         3.1587    2.8257   49.2544 H       1  ZINC001757264545    0.0700
     57 H57         1.9379    1.5334   49.1637 H       1  ZINC001757264545    0.0600
@<TRIPOS>BOND
     1     1     2    3
     2     1    28    1
     3     2     3    1
     4     3     4    1
     5     3    29    1
     6     3    30    1
     7     4     5    1
     8     4    31    1
     9     4    32    1
    10     5     6    1
    11     5    33    1
    12     5    34    1
    13     6     7    1
    14     6    35    1
    15     6    36    1
    16     7     8    1
    17     7    37    1
    18     7    38    1
    19     8     9    2
    20     8    10   am
    21    10    11    1
    22    10    39    1
    23    11    12    1
    24    11    17    1
    25    11    13    1
    26    13    14    1
    27    13    40    1
    28    13    41    1
    29    14    15    1
    30    14    42    1
    31    14    43    1
    32    15    16    1
    33    15    44    1
    34    15    45    1
    35    16    17    1
    36    16    46    1
    37    16    47    1
    38    17    18    1
    39    17    19    1
    40    19    20   am
    41    19    48    1
    42    20    21    2
    43    20    22    1
    44    22    23    3
    45    23    24    1
    46    24    25    1
    47    24    26    1
    48    24    27    1
    49    25    49    1
    50    25    50    1
    51    25    51    1
    52    26    52    1
    53    26    53    1
    54    26    54    1
    55    27    55    1
    56    27    56    1
    57    27    57    1
@<TRIPOS>SUBSTRUCTURE
     1 ZINC001757264545        1 TEMP              0 ****  ****    0 ROOT


##########                                Name:    ZINC000504243286
##########                DOCK_Rotatable_Bonds:                   7
##########                         Heavy_Atoms:                  29
##########                    Molecular_Weight:             408.337
##########                DOCK_Rotatable_Bonds:                   7
##########                       Formal_Charge:           0.0299994
##########                     HBond_Acceptors:                  11
##########                        HBond_Donors:                   3
##########                         Heavy_Atoms:                  29
##########                          Grid_Score:          -33.710472
##########                     Grid_vdw_energy:          -31.749859
##########                      Grid_es_energy:           -1.960615
##########           Internal_energy_repulsive:           15.373373

@<TRIPOS>MOLECULE
ZINC000504243286
 44 46 1 0 0
SMALL
USER_CHARGES


@<TRIPOS>ATOM
      1 O1         -4.5441    2.3255   49.6268 O.2     1  ZINC000504243286   -0.5200
      2 C2         -4.8932    1.9257   50.7174 C.2     1  ZINC000504243286    0.5200
      3 C3         -6.2615    1.3199   50.8955 C.3     1  ZINC000504243286   -0.1600
      4 C4         -6.2438    0.3619   52.0883 C.3     1  ZINC000504243286    0.1300
      5 N5         -7.6171   -0.0146   52.4326 N.pl3   1  ZINC000504243286   -0.7200
      6 C6         -8.3831    0.8143   53.2554 C.ar    1  ZINC000504243286    0.3100
      7 C7         -7.8912    2.0527   53.6471 C.ar    1  ZINC000504243286   -0.1900
      8 C8         -8.6515    2.8702   54.4604 C.ar    1  ZINC000504243286    0.0200
      9 C9         -9.9009    2.4569   54.8847 C.ar    1  ZINC000504243286   -0.2400
     10 C10       -10.7277    3.3518   55.7716 C.3     1  ZINC000504243286    0.5200
     11 F11       -11.5939    2.5710   56.5443 F       1  ZINC000504243286   -0.1700
     12 F12        -9.8831    4.0834   56.6133 F       1  ZINC000504243286   -0.1700
     13 F13       -11.4738    4.2319   54.9803 F       1  ZINC000504243286   -0.1700
     14 C14       -10.3937    1.2244   54.4964 C.ar    1  ZINC000504243286    0.0400
     15 C15        -9.6411    0.4044   53.6791 C.ar    1  ZINC000504243286   -0.1200
     16 N16       -10.1692   -0.9144   53.2642 N.pl3   1  ZINC000504243286    0.0400
     17 O17        -9.9534   -1.3307   52.1401 O.2     1  ZINC000504243286   -0.1700
     18 O18       -10.8198   -1.5836   54.0469 O.2     1  ZINC000504243286   -0.1400
     19 N19        -4.0551    2.0183   51.7689 N.am    1  ZINC000504243286   -0.6700
     20 C20        -2.7833    2.5814   51.6034 C.ar    1  ZINC000504243286    0.1200
     21 C21        -2.5145    3.8530   52.0919 C.ar    1  ZINC000504243286   -0.1000
     22 C22        -1.2633    4.4100   51.9310 C.ar    1  ZINC000504243286   -0.1200
     23 C23        -0.2586    3.7005   51.2760 C.ar    1  ZINC000504243286    0.1300
     24 N24         1.0653    4.0454   50.9932 N.am    1  ZINC000504243286   -0.6600
     25 C25         1.7149    3.0707   50.3349 C.2     1  ZINC000504243286    0.5300
     26 O26         2.8695    3.0976   49.9642 O.2     1  ZINC000504243286   -0.5000
     27 C27         0.7354    1.9325   50.1429 C.3     1  ZINC000504243286   -0.1200
     28 C28        -0.5370    2.4286   50.7905 C.ar    1  ZINC000504243286   -0.1200
     29 C29        -1.7824    1.8675   50.9544 C.ar    1  ZINC000504243286   -0.0600
     30 H30        -6.9886    2.1116   51.0760 H       1  ZINC000504243286    0.1100
     31 H31        -6.5365    0.7725   49.9939 H       1  ZINC000504243286    0.1100
     32 H32        -5.6765   -0.5317   51.8283 H       1  ZINC000504243286    0.0800
     33 H33        -5.7769    0.8532   52.9419 H       1  ZINC000504243286    0.0900
     34 H34        -7.9945   -0.8395   52.0891 H       1  ZINC000504243286    0.4100
     35 H35        -6.9153    2.3761   53.3163 H       1  ZINC000504243286    0.1600
     36 H36        -8.2696    3.8333   54.7657 H       1  ZINC000504243286    0.1600
     37 H37       -11.3700    0.9045   54.8296 H       1  ZINC000504243286    0.1600
     38 H38        -4.3327    1.6948   52.6403 H       1  ZINC000504243286    0.4200
     39 H39        -3.2889    4.4085   52.5998 H       1  ZINC000504243286    0.1400
     40 H40        -1.0614    5.3996   52.3135 H       1  ZINC000504243286    0.1300
     41 H41         1.4692    4.8910   51.2433 H       1  ZINC000504243286    0.4100
     42 H42         0.5746    1.7421   49.0818 H       1  ZINC000504243286    0.1300
     43 H43         1.0929    1.0327   50.6434 H       1  ZINC000504243286    0.1300
     44 H44        -1.9832    0.8759   50.5763 H       1  ZINC000504243286    0.1500
@<TRIPOS>BOND
     1     1     2    2
     2     2     3    1
     3     2    19   am
     4     3     4    1
     5     3    30    1
     6     3    31    1
     7     4     5    1
     8     4    32    1
     9     4    33    1
    10     5     6    1
    11     5    34    1
    12     6    15   ar
    13     6     7   ar
    14     7     8   ar
    15     7    35    1
    16     8     9   ar
    17     8    36    1
    18     9    10    1
    19     9    14   ar
    20    10    11    1
    21    10    12    1
    22    10    13    1
    23    14    15   ar
    24    14    37    1
    25    15    16    1
    26    16    17    2
    27    16    18    2
    28    19    20    1
    29    19    38    1
    30    20    29   ar
    31    20    21   ar
    32    21    22   ar
    33    21    39    1
    34    22    23   ar
    35    22    40    1
    36    23    28   ar
    37    23    24    1
    38    24    25   am
    39    24    41    1
    40    25    26    2
    41    25    27    1
    42    27    28    1
    43    27    42    1
    44    27    43    1
    45    28    29   ar
    46    29    44    1
@<TRIPOS>SUBSTRUCTURE
     1 ZINC000504243286        1 TEMP              0 ****  ****    0 ROOT


##########                                Name:    ZINC000058043838
##########                DOCK_Rotatable_Bonds:                   8
##########                         Heavy_Atoms:                  29
##########                    Molecular_Weight:             412.469
##########                DOCK_Rotatable_Bonds:                   8
##########                       Formal_Charge:           0.0200001
##########                     HBond_Acceptors:                   9
##########                        HBond_Donors:                   0
##########                         Heavy_Atoms:                  29
##########                          Grid_Score:          -33.684727
##########                     Grid_vdw_energy:          -32.172485
##########                      Grid_es_energy:           -1.512240
##########           Internal_energy_repulsive:           16.248636

@<TRIPOS>MOLECULE
ZINC000058043838
 49 51 1 0 0
SMALL
USER_CHARGES


@<TRIPOS>ATOM
      1 C1         -9.2861   -0.6254   52.6587 C.3     1  ZINC000058043838    0.0300
      2 O2         -8.0090   -0.9715   52.1188 O.3     1  ZINC000058043838   -0.3800
      3 C3         -6.9531   -0.0940   52.5155 C.3     1  ZINC000058043838    0.0300
      4 C4         -7.2134    1.3044   51.9521 C.3     1  ZINC000058043838    0.1000
      5 N5         -6.5677    2.3034   52.8072 N.am    1  ZINC000058043838   -0.5200
      6 C6         -7.0537    2.5507   54.0397 C.2     1  ZINC000058043838    0.5100
      7 O7         -8.0266    1.9473   54.4402 O.2     1  ZINC000058043838   -0.4500
      8 C8         -6.3886    3.5771   54.9202 C.3     1  ZINC000058043838   -0.0900
      9 C9         -6.8267    3.3741   56.3476 C.ar    1  ZINC000058043838   -0.1400
     10 C10        -7.9224    4.0592   56.8497 C.ar    1  ZINC000058043838   -0.0500
     11 C11        -8.2895    3.8407   58.1690 C.ar    1  ZINC000058043838   -0.1700
     12 C12        -7.5564    2.9536   58.9339 C.ar    1  ZINC000058043838    0.1300
     13 C13        -7.9466    2.7080   60.3686 C.3     1  ZINC000058043838   -0.1100
     14 N14        -6.5193    2.3191   58.4228 N.ar    1  ZINC000058043838   -0.4800
     15 C15        -6.1447    2.4983   57.1713 C.ar    1  ZINC000058043838    0.1200
     16 C16        -5.4542    2.9960   52.3477 C.2     1  ZINC000058043838    0.3100
     17 N17        -4.3184    2.4598   52.0260 N.2     1  ZINC000058043838   -0.4700
     18 C18        -3.3642    3.2780   51.6047 C.2     1  ZINC000058043838    0.1100
     19 C19        -2.0211    2.7911   51.2063 C.ar    1  ZINC000058043838    0.0400
     20 C20        -0.9661    2.8257   52.1166 C.ar    1  ZINC000058043838   -0.0800
     21 C21         0.2814    2.3709   51.7405 C.ar    1  ZINC000058043838   -0.0500
     22 C22         0.4858    1.8813   50.4629 C.ar    1  ZINC000058043838   -0.0400
     23 N23         1.8262    1.3947   50.0654 N.pl3   1  ZINC000058043838    0.0300
     24 O24         2.7465    1.4260   50.8626 O.2     1  ZINC000058043838   -0.1600
     25 O25         2.0087    0.9632   48.9411 O.2     1  ZINC000058043838   -0.1600
     26 C26        -0.5577    1.8441   49.5555 C.ar    1  ZINC000058043838   -0.0500
     27 C27        -1.8106    2.2919   49.9221 C.ar    1  ZINC000058043838   -0.1100
     28 C28        -3.6984    4.5803   51.5633 C.2     1  ZINC000058043838   -0.2600
     29 S29        -5.3681    4.7380   52.1042 S.3     1  ZINC000058043838    0.1500
     30 H30        -9.2392   -0.6503   53.7474 H       1  ZINC000058043838    0.0500
     31 H31        -9.5602    0.3769   52.3296 H       1  ZINC000058043838    0.0400
     32 H32       -10.0330   -1.3390   52.3108 H       1  ZINC000058043838    0.0900
     33 H33        -6.9107   -0.0453   53.6035 H       1  ZINC000058043838    0.0600
     34 H34        -6.0048   -0.4698   52.1313 H       1  ZINC000058043838    0.0800
     35 H35        -6.8057    1.3714   50.9435 H       1  ZINC000058043838    0.1200
     36 H36        -8.2871    1.4904   51.9232 H       1  ZINC000058043838    0.1000
     37 H37        -5.3063    3.4666   54.8531 H       1  ZINC000058043838    0.1100
     38 H38        -6.6728    4.5767   54.5914 H       1  ZINC000058043838    0.1100
     39 H39        -8.4766    4.7469   56.2283 H       1  ZINC000058043838    0.1300
     40 H40        -9.1377    4.3575   58.5934 H       1  ZINC000058043838    0.1400
     41 H41        -8.6565    1.8822   60.4158 H       1  ZINC000058043838    0.0800
     42 H42        -7.0587    2.4574   60.9489 H       1  ZINC000058043838    0.0800
     43 H43        -8.4070    3.6068   60.7789 H       1  ZINC000058043838    0.0800
     44 H44        -5.2900    1.9609   56.7878 H       1  ZINC000058043838    0.1500
     45 H45        -1.1244    3.2080   53.1141 H       1  ZINC000058043838    0.1600
     46 H46         1.0996    2.3975   52.4448 H       1  ZINC000058043838    0.1600
     47 H47        -0.3925    1.4609   48.5594 H       1  ZINC000058043838    0.1600
     48 H48        -2.6247    2.2621   49.2130 H       1  ZINC000058043838    0.1500
     49 H49        -3.0555    5.3892   51.2492 H       1  ZINC000058043838    0.1800
@<TRIPOS>BOND
     1     1     2    1
     2     1    30    1
     3     1    31    1
     4     1    32    1
     5     2     3    1
     6     3     4    1
     7     3    33    1
     8     3    34    1
     9     4     5    1
    10     4    35    1
    11     4    36    1
    12     5     6   am
    13     5    16    1
    14     6     7    2
    15     6     8    1
    16     8     9    1
    17     8    37    1
    18     8    38    1
    19     9    15   ar
    20     9    10   ar
    21    10    11   ar
    22    10    39    1
    23    11    12   ar
    24    11    40    1
    25    12    13    1
    26    12    14   ar
    27    13    41    1
    28    13    42    1
    29    13    43    1
    30    14    15   ar
    31    15    44    1
    32    16    29    1
    33    16    17    2
    34    17    18    1
    35    18    19    1
    36    18    28    2
    37    19    27   ar
    38    19    20   ar
    39    20    21   ar
    40    20    45    1
    41    21    22   ar
    42    21    46    1
    43    22    23    1
    44    22    26   ar
    45    23    24    2
    46    23    25    2
    47    26    27   ar
    48    26    47    1
    49    27    48    1
    50    28    29    1
    51    28    49    1
@<TRIPOS>SUBSTRUCTURE
     1 ZINC000058043838        1 TEMP              0 ****  ****    0 ROOT


##########                                Name:    ZINC000744839011
##########                DOCK_Rotatable_Bonds:                  10
##########                         Heavy_Atoms:                  24
##########                    Molecular_Weight:              378.83
##########                DOCK_Rotatable_Bonds:                  10
##########                       Formal_Charge:           0.0300002
##########                     HBond_Acceptors:                   9
##########                        HBond_Donors:                   0
##########                         Heavy_Atoms:                  24
##########                          Grid_Score:          -33.682735
##########                     Grid_vdw_energy:          -33.299213
##########                      Grid_es_energy:           -0.383522
##########           Internal_energy_repulsive:           11.925133

@<TRIPOS>MOLECULE
ZINC000744839011
 43 43 1 0 0
SMALL
USER_CHARGES


@<TRIPOS>ATOM
      1 C1         -2.7126    3.2829   56.7291 C.3     1  ZINC000744839011    0.0400
      2 O2         -1.5532    2.9933   55.9043 O.3     1  ZINC000744839011   -0.3600
      3 C3         -1.3585    3.7773   54.8258 C.2     1  ZINC000744839011    0.5100
      4 O4         -0.4392    4.5718   54.8103 O.2     1  ZINC000744839011   -0.5000
      5 C5         -2.2610    3.6712   53.6645 C.ar    1  ZINC000744839011   -0.1600
      6 C6         -3.4530    4.4002   53.6345 C.ar    1  ZINC000744839011   -0.0100
      7 C7         -4.2933    4.2989   52.5481 C.ar    1  ZINC000744839011   -0.2100
      8 C8         -3.9577    3.4733   51.4819 C.ar    1  ZINC000744839011    0.1800
      9 O9         -4.7888    3.3765   50.4132 O.3     1  ZINC000744839011   -0.2900
     10 C10        -6.1206    2.9245   50.6660 C.3     1  ZINC000744839011    0.0500
     11 C11        -6.0794    1.4951   51.2101 C.3     1  ZINC000744839011    0.0600
     12 O12        -7.4186    1.0831   51.5906 O.3     1  ZINC000744839011   -0.3400
     13 C13        -7.5581   -0.1586   52.0811 C.2     1  ZINC000744839011    0.5000
     14 O14        -6.6203   -0.9203   52.0723 O.2     1  ZINC000744839011   -0.4900
     15 C15        -8.8842   -0.6024   52.6426 C.3     1  ZINC000744839011   -0.6400
     16 S16        -9.6686    0.7846   53.5093 S.o2    1  ZINC000744839011    2.4400
     17 O17        -8.8458    1.1566   54.6065 O.2     1  ZINC000744839011   -0.9100
     18 O18       -10.0342    1.7685   52.5514 O.2     1  ZINC000744839011   -0.9100
     19 C19       -11.1801    0.0168   54.1546 C.3     1  ZINC000744839011   -0.5700
     20 C20       -11.9980   -0.5533   52.9939 C.3     1  ZINC000744839011   -0.1500
     21 C21       -10.8075   -1.1115   55.1185 C.3     1  ZINC000744839011   -0.1500
     22 C22        -2.7719    2.7460   51.5069 C.ar    1  ZINC000744839011   -0.0800
     23 Cl23       -2.3579    1.7167   50.1716 Cl      1  ZINC000744839011   -0.0400
     24 C24        -1.9237    2.8455   52.5877 C.ar    1  ZINC000744839011   -0.0100
     25 H25        -2.6388    4.2994   57.1155 H       1  ZINC000744839011    0.0700
     26 H26        -3.6180    3.1867   56.1298 H       1  ZINC000744839011    0.0700
     27 H27        -2.7513    2.5798   57.5612 H       1  ZINC000744839011    0.1100
     28 H28        -3.7152    5.0419   54.4627 H       1  ZINC000744839011    0.1500
     29 H29        -5.2147    4.8618   52.5247 H       1  ZINC000744839011    0.1500
     30 H30        -6.5934    3.5786   51.3987 H       1  ZINC000744839011    0.0900
     31 H31        -6.6931    2.9439   49.7387 H       1  ZINC000744839011    0.1000
     32 H32        -5.6978    0.8242   50.4403 H       1  ZINC000744839011    0.1100
     33 H33        -5.4260    1.4568   52.0817 H       1  ZINC000744839011    0.0900
     34 H34        -9.5300   -0.9350   51.8299 H       1  ZINC000744839011    0.1700
     35 H35        -8.7263   -1.4245   53.3407 H       1  ZINC000744839011    0.1700
     36 H36       -11.7711    0.7653   54.6824 H       1  ZINC000744839011    0.1400
     37 H37       -12.9062   -1.0146   53.3816 H       1  ZINC000744839011    0.0900
     38 H38       -12.2634    0.2505   52.3072 H       1  ZINC000744839011    0.0700
     39 H39       -11.4070   -1.3019   52.4661 H       1  ZINC000744839011    0.0800
     40 H40       -10.2249   -0.7054   55.9453 H       1  ZINC000744839011    0.0800
     41 H41       -11.7158   -1.5729   55.5062 H       1  ZINC000744839011    0.0900
     42 H42       -10.2166   -1.8600   54.5907 H       1  ZINC000744839011    0.0800
     43 H43        -1.0034    2.2807   52.6068 H       1  ZINC000744839011    0.1600
@<TRIPOS>BOND
     1     1     2    1
     2     1    25    1
     3     1    26    1
     4     1    27    1
     5     2     3    1
     6     3     4    2
     7     3     5    1
     8     5    24   ar
     9     5     6   ar
    10     6     7   ar
    11     6    28    1
    12     7     8   ar
    13     7    29    1
    14     8     9    1
    15     8    22   ar
    16     9    10    1
    17    10    11    1
    18    10    30    1
    19    10    31    1
    20    11    12    1
    21    11    32    1
    22    11    33    1
    23    12    13    1
    24    13    14    2
    25    13    15    1
    26    15    16    1
    27    15    34    1
    28    15    35    1
    29    16    17    2
    30    16    18    2
    31    16    19    1
    32    19    20    1
    33    19    21    1
    34    19    36    1
    35    20    37    1
    36    20    38    1
    37    20    39    1
    38    21    40    1
    39    21    41    1
    40    21    42    1
    41    22    23    1
    42    22    24   ar
    43    24    43    1
@<TRIPOS>SUBSTRUCTURE
     1 ZINC000744839011        1 TEMP              0 ****  ****    0 ROOT


##########                                Name:    ZINC000426567005
##########                DOCK_Rotatable_Bonds:                   9
##########                         Heavy_Atoms:                  31
##########                    Molecular_Weight:             417.467
##########                DOCK_Rotatable_Bonds:                   9
##########                       Formal_Charge:        -2.23517e-07
##########                     HBond_Acceptors:                   8
##########                        HBond_Donors:                   4
##########                         Heavy_Atoms:                  31
##########                          Grid_Score:          -33.680588
##########                     Grid_vdw_energy:          -34.145668
##########                      Grid_es_energy:            0.465081
##########           Internal_energy_repulsive:           12.440588

@<TRIPOS>MOLECULE
ZINC000426567005
 54 57 1 0 0
SMALL
USER_CHARGES


@<TRIPOS>ATOM
      1 O1        -12.0445   -0.6483   53.1988 O.2     1  ZINC000426567005   -0.4900
      2 C2        -11.4223   -0.0962   54.0829 C.2     1  ZINC000426567005    0.5200
      3 N3        -11.9841    0.0760   55.2958 N.am    1  ZINC000426567005   -0.6000
      4 C4        -13.2867   -0.3762   55.5342 C.2     1  ZINC000426567005    0.3000
      5 N5        -14.2404   -0.4875   54.6390 N.2     1  ZINC000426567005   -0.3100
      6 N6        -15.3866   -0.9742   55.2804 N.pl3   1  ZINC000426567005   -0.4600
      7 C7        -15.0922   -1.1514   56.5858 C.2     1  ZINC000426567005    0.1100
      8 C8        -16.0337   -1.6616   57.6462 C.3     1  ZINC000426567005   -0.0300
      9 C9        -15.6165   -3.0812   58.1041 C.3     1  ZINC000426567005   -0.1200
     10 C10       -16.2402   -3.1811   59.5184 C.3     1  ZINC000426567005   -0.1300
     11 C11       -16.0549   -1.7703   60.1142 C.3     1  ZINC000426567005   -0.1300
     12 C12       -15.9236   -0.8041   58.9239 C.3     1  ZINC000426567005   -0.1200
     13 C13       -13.8009   -0.7964   56.7720 C.2     1  ZINC000426567005   -0.2600
     14 C14       -10.0330    0.3862   53.8287 C.2     1  ZINC000426567005    0.5200
     15 O15        -9.2835    0.5963   54.7601 O.2     1  ZINC000426567005   -0.4900
     16 N16        -9.6105    0.5887   52.5650 N.am    1  ZINC000426567005   -0.6400
     17 C17        -8.3141    1.0388   52.3278 C.ar    1  ZINC000426567005    0.1700
     18 C18        -7.2650    0.1272   52.2544 C.ar    1  ZINC000426567005   -0.1300
     19 C19        -5.9824    0.5688   52.0201 C.ar    1  ZINC000426567005   -0.0300
     20 C20        -5.7344    1.9344   51.8553 C.ar    1  ZINC000426567005   -0.1500
     21 C21        -4.3607    2.4114   51.6035 C.2     1  ZINC000426567005    0.5600
     22 O22        -4.1326    3.6043   51.5446 O.2     1  ZINC000426567005   -0.5100
     23 N23        -3.3591    1.5248   51.4387 N.am    1  ZINC000426567005   -0.6700
     24 C24        -2.0574    1.9768   51.2000 C.ar    1  ZINC000426567005    0.1400
     25 C25        -1.5107    1.8831   49.9267 C.ar    1  ZINC000426567005   -0.1500
     26 C26        -0.2250    2.3309   49.6941 C.ar    1  ZINC000426567005   -0.1000
     27 C27         0.5178    2.8719   50.7275 C.ar    1  ZINC000426567005   -0.1300
     28 C28        -0.0234    2.9662   51.9966 C.ar    1  ZINC000426567005   -0.1000
     29 C29        -1.3105    2.5256   52.2345 C.ar    1  ZINC000426567005   -0.1200
     30 C30        -6.7901    2.8473   51.9291 C.ar    1  ZINC000426567005   -0.0600
     31 C31        -8.0712    2.3988   52.1589 C.ar    1  ZINC000426567005   -0.1400
     32 H32       -11.4855    0.5134   56.0037 H       1  ZINC000426567005    0.4300
     33 H33       -16.2424   -1.1528   54.8600 H       1  ZINC000426567005    0.4400
     34 H34       -17.0588   -1.6641   57.2756 H       1  ZINC000426567005    0.1100
     35 H35       -16.0355   -3.8393   57.4426 H       1  ZINC000426567005    0.0800
     36 H36       -14.5310   -3.1675   58.1538 H       1  ZINC000426567005    0.0700
     37 H37       -17.2991   -3.4309   59.4515 H       1  ZINC000426567005    0.0700
     38 H38       -15.7099   -3.9211   60.1178 H       1  ZINC000426567005    0.0700
     39 H39       -16.9221   -1.5031   60.7180 H       1  ZINC000426567005    0.0700
     40 H40       -15.1512   -1.7378   60.7229 H       1  ZINC000426567005    0.0700
     41 H41       -14.9562   -0.3028   58.9548 H       1  ZINC000426567005    0.0600
     42 H42       -16.7271   -0.0681   58.9499 H       1  ZINC000426567005    0.0700
     43 H43       -13.2624   -0.8240   57.7077 H       1  ZINC000426567005    0.1700
     44 H44       -10.2095    0.4209   51.8206 H       1  ZINC000426567005    0.4300
     45 H45        -7.4572   -0.9279   52.3818 H       1  ZINC000426567005    0.1500
     46 H46        -5.1687   -0.1389   51.9640 H       1  ZINC000426567005    0.1400
     47 H47        -3.5411    0.5732   51.4856 H       1  ZINC000426567005    0.4100
     48 H48        -2.0902    1.4604   49.1193 H       1  ZINC000426567005    0.1300
     49 H49         0.2008    2.2580   48.7044 H       1  ZINC000426567005    0.1300
     50 H50         1.5229    3.2214   50.5431 H       1  ZINC000426567005    0.1200
     51 H51         0.5595    3.3886   52.8016 H       1  ZINC000426567005    0.1300
     52 H52        -1.7329    2.5997   53.2257 H       1  ZINC000426567005    0.1300
     53 H53        -6.6017    3.9032   51.8026 H       1  ZINC000426567005    0.1300
     54 H54        -8.8875    3.1037   52.2160 H       1  ZINC000426567005    0.1400
@<TRIPOS>BOND
     1     1     2    2
     2     2     3   am
     3     2    14    1
     4     3     4    1
     5     3    32    1
     6     4    13    1
     7     4     5    2
     8     5     6    1
     9     6     7    1
    10     6    33    1
    11     7     8    1
    12     7    13    2
    13     8    12    1
    14     8     9    1
    15     8    34    1
    16     9    10    1
    17     9    35    1
    18     9    36    1
    19    10    11    1
    20    10    37    1
    21    10    38    1
    22    11    12    1
    23    11    39    1
    24    11    40    1
    25    12    41    1
    26    12    42    1
    27    13    43    1
    28    14    15    2
    29    14    16   am
    30    16    17    1
    31    16    44    1
    32    17    31   ar
    33    17    18   ar
    34    18    19   ar
    35    18    45    1
    36    19    20   ar
    37    19    46    1
    38    20    21    1
    39    20    30   ar
    40    21    22    2
    41    21    23   am
    42    23    24    1
    43    23    47    1
    44    24    29   ar
    45    24    25   ar
    46    25    26   ar
    47    25    48    1
    48    26    27   ar
    49    26    49    1
    50    27    28   ar
    51    27    50    1
    52    28    29   ar
    53    28    51    1
    54    29    52    1
    55    30    31   ar
    56    30    53    1
    57    31    54    1
@<TRIPOS>SUBSTRUCTURE
     1 ZINC000426567005        1 TEMP              0 ****  ****    0 ROOT


##########                                Name:    ZINC000555499135
##########                DOCK_Rotatable_Bonds:                   8
##########                         Heavy_Atoms:                  26
##########                    Molecular_Weight:             377.554
##########                DOCK_Rotatable_Bonds:                   8
##########                       Formal_Charge:           0.0399999
##########                     HBond_Acceptors:                   7
##########                        HBond_Donors:                   0
##########                         Heavy_Atoms:                  26
##########                          Grid_Score:          -33.671310
##########                     Grid_vdw_energy:          -33.109142
##########                      Grid_es_energy:           -0.562169
##########           Internal_energy_repulsive:            9.828085

@<TRIPOS>MOLECULE
ZINC000555499135
 57 59 1 0 0
SMALL
USER_CHARGES


@<TRIPOS>ATOM
      1 C1         -0.1041    4.3910   53.1255 C.3     1  ZINC000555499135   -0.1500
      2 C2         -0.9198    4.6290   51.8531 C.3     1  ZINC000555499135   -0.0500
      3 C3         -1.8521    3.4665   51.6292 C.2     1  ZINC000555499135   -0.2100
      4 C4         -1.5768    2.3610   50.9308 C.2     1  ZINC000555499135    0.0300
      5 N5         -2.5615    1.4866   50.8808 N.2     1  ZINC000555499135   -0.4500
      6 C6         -3.6522    1.7931   51.4984 C.2     1  ZINC000555499135    0.0400
      7 C7         -4.8837    0.9264   51.5556 C.3     1  ZINC000555499135    0.1500
      8 N8         -6.0798    1.7777   51.6037 N.3     1  ZINC000555499135   -0.4500
      9 C9         -6.4214    2.2816   50.2667 C.3     1  ZINC000555499135    0.0100
     10 C10        -7.1494    1.1003   52.1672 C.2     1  ZINC000555499135    0.3500
     11 N11        -7.4559   -0.1625   51.9853 N.2     1  ZINC000555499135   -0.3100
     12 N12        -8.5089   -0.4579   52.6605 N.2     1  ZINC000555499135   -0.2900
     13 C13        -8.9331    0.5903   53.3080 C.2     1  ZINC000555499135    0.2100
     14 C14       -10.1377    0.6553   54.2111 C.3     1  ZINC000555499135   -0.0300
     15 C15       -11.0710   -0.5170   53.9016 C.3     1  ZINC000555499135   -0.0900
     16 C16       -11.9881   -0.7689   55.1000 C.3     1  ZINC000555499135   -0.1500
     17 C17       -11.9183   -0.1834   52.6721 C.3     1  ZINC000555499135   -0.1500
     18 N18        -8.0791    1.6189   53.0208 N.pl3   1  ZINC000555499135   -0.4600
     19 C19        -8.1522    2.9946   53.5192 C.3     1  ZINC000555499135    0.1100
     20 C20        -7.4516    3.0832   54.8763 C.3     1  ZINC000555499135    0.0700
     21 H21        -7.7481    2.2359   55.4946 H       1  ZINC000555499135    0.0700
     22 C22        -7.8501    4.3872   55.5724 C.3     1  ZINC000555499135   -0.1500
     23 C23        -7.0987    4.4972   56.9027 C.3     1  ZINC000555499135   -0.1200
     24 C24        -5.5928    4.4185   56.6338 C.3     1  ZINC000555499135   -0.1600
     25 C25        -5.2814    3.1133   55.8967 C.3     1  ZINC000555499135    0.0600
     26 O26        -6.0357    3.0606   54.6842 O.3     1  ZINC000555499135   -0.3700
     27 S27        -3.4953    3.3214   52.2487 S.3     1  ZINC000555499135    0.1200
     28 H28        -0.7783    4.2968   53.9769 H       1  ZINC000555499135    0.0600
     29 H29         0.4767    3.4748   53.0187 H       1  ZINC000555499135    0.0600
     30 H30         0.5702    5.2319   53.2875 H       1  ZINC000555499135    0.0700
     31 H31        -1.5005    5.5452   51.9599 H       1  ZINC000555499135    0.0900
     32 H32        -0.2456    4.7234   51.0018 H       1  ZINC000555499135    0.0800
     33 H33        -0.6253    2.1975   50.4468 H       1  ZINC000555499135    0.1800
     34 H34        -4.9238    0.2930   50.6695 H       1  ZINC000555499135    0.0800
     35 H35        -4.8468    0.3011   52.4478 H       1  ZINC000555499135    0.1200
     36 H36        -6.7331    1.4506   49.6339 H       1  ZINC000555499135    0.0500
     37 H37        -7.2352    3.0023   50.3469 H       1  ZINC000555499135    0.0800
     38 H38        -5.5493    2.7658   49.8272 H       1  ZINC000555499135    0.0900
     39 H39        -9.8157    0.5986   55.2509 H       1  ZINC000555499135    0.1000
     40 H40       -10.6661    1.5941   54.0450 H       1  ZINC000555499135    0.1000
     41 H41       -10.4787   -1.4102   53.7032 H       1  ZINC000555499135    0.0800
     42 H42       -11.3834   -0.9672   55.9850 H       1  ZINC000555499135    0.0500
     43 H43       -12.6089    0.1101   55.2736 H       1  ZINC000555499135    0.0600
     44 H44       -12.6255   -1.6291   54.8953 H       1  ZINC000555499135    0.0600
     45 H45       -11.2649   -0.0039   51.8184 H       1  ZINC000555499135    0.0600
     46 H46       -12.5832   -1.0185   52.4516 H       1  ZINC000555499135    0.0600
     47 H47       -12.5106    0.7100   52.8706 H       1  ZINC000555499135    0.0600
     48 H48        -7.6613    3.6635   52.8124 H       1  ZINC000555499135    0.1100
     49 H49        -9.1967    3.2859   53.6297 H       1  ZINC000555499135    0.1200
     50 H50        -7.5906    5.2336   54.9365 H       1  ZINC000555499135    0.0800
     51 H51        -8.9239    4.3868   55.7596 H       1  ZINC000555499135    0.0800
     52 H52        -7.3350    5.4495   57.3774 H       1  ZINC000555499135    0.0700
     53 H53        -7.3954    3.6781   57.5579 H       1  ZINC000555499135    0.0600
     54 H54        -5.2877    5.2655   56.0193 H       1  ZINC000555499135    0.0700
     55 H55        -5.0521    4.4402   57.5800 H       1  ZINC000555499135    0.0800
     56 H56        -4.2172    3.0717   55.6649 H       1  ZINC000555499135    0.1000
     57 H57        -5.5494    2.2663   56.5284 H       1  ZINC000555499135    0.0500
@<TRIPOS>BOND
     1     1     2    1
     2     1    28    1
     3     1    29    1
     4     1    30    1
     5     2     3    1
     6     2    31    1
     7     2    32    1
     8     3    27    1
     9     3     4    2
    10     4     5    1
    11     4    33    1
    12     5     6    2
    13     6     7    1
    14     6    27    1
    15     7     8    1
    16     7    34    1
    17     7    35    1
    18     8     9    1
    19     8    10    1
    20     9    36    1
    21     9    37    1
    22     9    38    1
    23    10    18    1
    24    10    11    2
    25    11    12    1
    26    12    13    2
    27    13    14    1
    28    13    18    1
    29    14    15    1
    30    14    39    1
    31    14    40    1
    32    15    16    1
    33    15    17    1
    34    15    41    1
    35    16    42    1
    36    16    43    1
    37    16    44    1
    38    17    45    1
    39    17    46    1
    40    17    47    1
    41    18    19    1
    42    19    20    1
    43    19    48    1
    44    19    49    1
    45    20    21    1
    46    20    26    1
    47    20    22    1
    48    22    23    1
    49    22    50    1
    50    22    51    1
    51    23    24    1
    52    23    52    1
    53    23    53    1
    54    24    25    1
    55    24    54    1
    56    24    55    1
    57    25    26    1
    58    25    56    1
    59    25    57    1
@<TRIPOS>SUBSTRUCTURE
     1 ZINC000555499135        1 TEMP              0 ****  ****    0 ROOT


##########                                Name:    ZINC000058174787
##########                DOCK_Rotatable_Bonds:                   9
##########                         Heavy_Atoms:                  27
##########                    Molecular_Weight:             413.882
##########                DOCK_Rotatable_Bonds:                   9
##########                       Formal_Charge:           0.0200002
##########                     HBond_Acceptors:                  10
##########                        HBond_Donors:                   1
##########                         Heavy_Atoms:                  27
##########                          Grid_Score:          -33.669613
##########                     Grid_vdw_energy:          -32.963566
##########                      Grid_es_energy:           -0.706047
##########           Internal_energy_repulsive:            5.347795

@<TRIPOS>MOLECULE
ZINC000058174787
 47 48 1 0 0
SMALL
USER_CHARGES


@<TRIPOS>ATOM
      1 C1        -15.3178   -2.4419   57.8634 C.3     1  ZINC000058174787   -0.0700
      2 C2        -14.3802   -1.7947   56.8768 C.2     1  ZINC000058174787    0.2100
      3 N3        -13.0865   -1.9611   56.8351 N.2     1  ZINC000058174787   -0.4200
      4 C4        -12.5790   -1.2327   55.8296 C.2     1  ZINC000058174787   -0.5600
      5 S5        -10.8787   -1.1334   55.3786 S.o2    1  ZINC000058174787    2.7400
      6 O6        -10.3844    0.0747   55.9402 O.2     1  ZINC000058174787   -0.9500
      7 O7        -10.3147   -2.4077   55.6566 O.2     1  ZINC000058174787   -0.9600
      8 N8        -10.8180   -0.9439   53.7344 N.am    1  ZINC000058174787   -1.1100
      9 C9         -9.5238   -0.8302   53.0575 C.3     1  ZINC000058174787    0.1300
     10 C10        -9.0967    0.6384   53.0170 C.3     1  ZINC000058174787   -0.1200
     11 C11        -7.6936    0.7388   52.4767 C.2     1  ZINC000058174787    0.4700
     12 O12        -6.9991   -0.2478   52.4119 O.2     1  ZINC000058174787   -0.5000
     13 O13        -7.2152    1.9243   52.0673 O.3     1  ZINC000058174787   -0.3300
     14 C14        -6.0034    2.4030   52.7081 C.3     1  ZINC000058174787    0.0400
     15 H15        -5.3483    1.5588   52.9232 H       1  ZINC000058174787    0.1200
     16 C16        -6.3637    3.1145   54.0138 C.3     1  ZINC000058174787   -0.1700
     17 C17        -5.2963    3.3662   51.7897 C.2     1  ZINC000058174787    0.4000
     18 O18        -5.8920    4.3208   51.3373 O.2     1  ZINC000058174787   -0.4200
     19 C19        -3.8838    3.1486   51.4421 C.ar    1  ZINC000058174787   -0.1600
     20 C20        -2.8943    3.9895   51.9628 C.ar    1  ZINC000058174787   -0.0600
     21 C21        -1.5728    3.7793   51.6331 C.ar    1  ZINC000058174787   -0.1200
     22 C22        -1.2231    2.7382   50.7881 C.ar    1  ZINC000058174787    0.0000
     23 Cl23        0.4441    2.4807   50.3789 Cl      1  ZINC000058174787   -0.0500
     24 C24        -2.1978    1.9014   50.2687 C.ar    1  ZINC000058174787   -0.1200
     25 C25        -3.5228    2.0963   50.5938 C.ar    1  ZINC000058174787   -0.0400
     26 C26       -13.5969   -0.5905   55.2254 C.2     1  ZINC000058174787    0.0700
     27 N27       -14.7404   -0.9508   55.8859 N.pl3   1  ZINC000058174787   -0.4500
     28 C28       -16.0999   -0.4987   55.5803 C.3     1  ZINC000058174787    0.0600
     29 H29       -15.6625   -3.3961   57.4647 H       1  ZINC000058174787    0.0900
     30 H30       -14.7953   -2.6092   58.8052 H       1  ZINC000058174787    0.1000
     31 H31       -16.1736   -1.7888   58.0336 H       1  ZINC000058174787    0.0800
     32 H32       -11.6394   -0.9082   53.2198 H       1  ZINC000058174787    0.4200
     33 H33        -8.7776   -1.4107   53.6001 H       1  ZINC000058174787    0.0900
     34 H34        -9.6112   -1.2113   52.0400 H       1  ZINC000058174787    0.0900
     35 H35        -9.7753    1.1965   52.3718 H       1  ZINC000058174787    0.1200
     36 H36        -9.1288    1.0541   54.0241 H       1  ZINC000058174787    0.1200
     37 H37        -7.0188    3.9587   53.7986 H       1  ZINC000058174787    0.0800
     38 H38        -6.8751    2.4178   54.6780 H       1  ZINC000058174787    0.0800
     39 H39        -5.4540    3.4738   54.4948 H       1  ZINC000058174787    0.0800
     40 H40        -3.1654    4.8016   52.6211 H       1  ZINC000058174787    0.1400
     41 H41        -0.8078    4.4279   52.0341 H       1  ZINC000058174787    0.1400
     42 H42        -1.9180    1.0920   49.6107 H       1  ZINC000058174787    0.1400
     43 H43        -4.2813    1.4432   50.1886 H       1  ZINC000058174787    0.1500
     44 H44       -13.5252    0.0771   54.3795 H       1  ZINC000058174787    0.1900
     45 H45       -16.5570   -1.1806   54.8632 H       1  ZINC000058174787    0.0900
     46 H46       -16.6920   -0.4834   56.4953 H       1  ZINC000058174787    0.1000
     47 H47       -16.0624    0.5041   55.1550 H       1  ZINC000058174787    0.0900
@<TRIPOS>BOND
     1     1     2    1
     2     1    29    1
     3     1    30    1
     4     1    31    1
     5     2    27    1
     6     2     3    2
     7     3     4    1
     8     4     5    1
     9     4    26    2
    10     5     6    2
    11     5     7    2
    12     5     8   am
    13     8     9    1
    14     8    32    1
    15     9    10    1
    16     9    33    1
    17     9    34    1
    18    10    11    1
    19    10    35    1
    20    10    36    1
    21    11    12    2
    22    11    13    1
    23    13    14    1
    24    14    15    1
    25    14    16    1
    26    14    17    1
    27    16    37    1
    28    16    38    1
    29    16    39    1
    30    17    18    2
    31    17    19    1
    32    19    25   ar
    33    19    20   ar
    34    20    21   ar
    35    20    40    1
    36    21    22   ar
    37    21    41    1
    38    22    23    1
    39    22    24   ar
    40    24    25   ar
    41    24    42    1
    42    25    43    1
    43    26    27    1
    44    26    44    1
    45    27    28    1
    46    28    45    1
    47    28    46    1
    48    28    47    1
@<TRIPOS>SUBSTRUCTURE
     1 ZINC000058174787        1 TEMP              0 ****  ****    0 ROOT


##########                                Name:    ZINC000992031068
##########                DOCK_Rotatable_Bonds:                   8
##########                         Heavy_Atoms:                  25
##########                    Molecular_Weight:             342.401
##########                DOCK_Rotatable_Bonds:                   8
##########                       Formal_Charge:           0.0199999
##########                     HBond_Acceptors:                   8
##########                        HBond_Donors:                   2
##########                         Heavy_Atoms:                  25
##########                          Grid_Score:          -33.666515
##########                     Grid_vdw_energy:          -33.710991
##########                      Grid_es_energy:            0.044474
##########           Internal_energy_repulsive:            8.899276

@<TRIPOS>MOLECULE
ZINC000992031068
 47 49 1 0 0
SMALL
USER_CHARGES


@<TRIPOS>ATOM
      1 C1         -2.4317    1.9420   51.0040 C.3     1  ZINC000992031068   -0.1100
      2 C2         -3.9320    2.0826   50.9789 C.ar    1  ZINC000992031068    0.1800
      3 C3         -4.7438    1.0179   51.3433 C.ar    1  ZINC000992031068   -0.1700
      4 C4         -6.1269    1.1979   51.3039 C.ar    1  ZINC000992031068    0.1300
      5 C5         -7.0428    0.0930   51.6837 C.2     1  ZINC000992031068    0.5700
      6 O6         -6.7980   -1.0452   51.3370 O.2     1  ZINC000992031068   -0.5200
      7 N7         -8.1459    0.3527   52.4131 N.am    1  ZINC000992031068   -0.7100
      8 C8         -9.0488   -0.7379   52.7895 C.3     1  ZINC000992031068    0.1300
      9 C9        -10.2203   -0.1747   53.5964 C.3     1  ZINC000992031068   -0.1200
     10 C10       -10.6602    1.2285   53.1466 C.3     1  ZINC000992031068   -0.1400
     11 C11       -12.1084    0.7563   53.3573 C.3     1  ZINC000992031068    0.1200
     12 N12       -13.0353    1.2272   52.3252 N.am    1  ZINC000992031068   -0.7200
     13 C13       -14.1166    0.4898   52.0033 C.2     1  ZINC000992031068    0.5200
     14 O14       -14.3230   -0.5628   52.5690 O.2     1  ZINC000992031068   -0.5200
     15 C15       -15.0691    0.9734   50.9403 C.3     1  ZINC000992031068   -0.0800
     16 C16       -15.4835   -0.1864   50.0718 C.2     1  ZINC000992031068    0.1000
     17 C17       -16.6815   -0.8148   50.0984 C.2     1  ZINC000992031068   -0.2500
     18 C18       -16.6557   -1.8313   49.1378 C.2     1  ZINC000992031068    0.0500
     19 N19       -15.4842   -1.8137   48.5556 N.2     1  ZINC000992031068   -0.2900
     20 N20       -14.7282   -0.7805   49.1243 N.pl3   1  ZINC000992031068   -0.3700
     21 C21       -13.3568   -0.4154   48.7610 C.3     1  ZINC000992031068    0.1000
     22 C22       -11.5941   -0.6730   53.1177 C.3     1  ZINC000992031068   -0.1400
     23 N23        -6.6114    2.3766   50.9208 N.ar    1  ZINC000992031068   -0.5000
     24 C24        -5.8030    3.3587   50.5838 C.ar    1  ZINC000992031068    0.3000
     25 N25        -4.4914    3.2237   50.6146 N.ar    1  ZINC000992031068   -0.5100
     26 H26        -2.0565    2.2266   51.9870 H       1  ZINC000992031068    0.0900
     27 H27        -2.1603    0.9067   50.7973 H       1  ZINC000992031068    0.0900
     28 H28        -1.9932    2.5909   50.2459 H       1  ZINC000992031068    0.0900
     29 H29        -4.3163    0.0744   51.6491 H       1  ZINC000992031068    0.1600
     30 H30        -8.3420    1.2617   52.6891 H       1  ZINC000992031068    0.4100
     31 H31        -9.4272   -1.2231   51.8897 H       1  ZINC000992031068    0.0700
     32 H32        -8.5074   -1.4655   53.3942 H       1  ZINC000992031068    0.0800
     33 H33       -10.0744   -0.2637   54.6729 H       1  ZINC000992031068    0.1000
     34 H34       -10.3557    2.0214   53.8296 H       1  ZINC000992031068    0.0800
     35 H35       -10.4197    1.4489   52.1065 H       1  ZINC000992031068    0.0900
     36 H36       -12.4797    0.9244   54.3682 H       1  ZINC000992031068    0.1200
     37 H37       -12.8709    2.0697   51.8736 H       1  ZINC000992031068    0.4000
     38 H38       -15.9507    1.4070   51.4123 H       1  ZINC000992031068    0.1200
     39 H39       -14.5766    1.7285   50.3275 H       1  ZINC000992031068    0.1100
     40 H40       -17.5110   -0.5743   50.7469 H       1  ZINC000992031068    0.1500
     41 H41       -17.4632   -2.5133   48.9157 H       1  ZINC000992031068    0.1800
     42 H42       -13.3776    0.3279   47.9640 H       1  ZINC000992031068    0.0800
     43 H43       -12.8485   -0.0006   49.6315 H       1  ZINC000992031068    0.0800
     44 H44       -12.8238   -1.3019   48.4172 H       1  ZINC000992031068    0.0900
     45 H45       -11.6091   -0.9725   52.0697 H       1  ZINC000992031068    0.0900
     46 H46       -12.0436   -1.4151   53.7775 H       1  ZINC000992031068    0.0800
     47 H47        -6.2258    4.3039   50.2771 H       1  ZINC000992031068    0.2100
@<TRIPOS>BOND
     1     1     2    1
     2     1    26    1
     3     1    27    1
     4     1    28    1
     5     2    25   ar
     6     2     3   ar
     7     3     4   ar
     8     3    29    1
     9     4     5    1
    10     4    23   ar
    11     5     6    2
    12     5     7   am
    13     7     8    1
    14     7    30    1
    15     8     9    1
    16     8    31    1
    17     8    32    1
    18     9    22    1
    19     9    10    1
    20     9    33    1
    21    10    11    1
    22    10    34    1
    23    10    35    1
    24    11    12    1
    25    11    22    1
    26    11    36    1
    27    12    13   am
    28    12    37    1
    29    13    14    2
    30    13    15    1
    31    15    16    1
    32    15    38    1
    33    15    39    1
    34    16    20    1
    35    16    17    2
    36    17    18    1
    37    17    40    1
    38    18    19    2
    39    18    41    1
    40    19    20    1
    41    20    21    1
    42    21    42    1
    43    21    43    1
    44    21    44    1
    45    22    45    1
    46    22    46    1
    47    23    24   ar
    48    24    25   ar
    49    24    47    1
@<TRIPOS>SUBSTRUCTURE
     1 ZINC000992031068        1 TEMP              0 ****  ****    0 ROOT


##########                                Name:    ZINC000015179664
##########                DOCK_Rotatable_Bonds:                   8
##########                         Heavy_Atoms:                  25
##########                    Molecular_Weight:             361.422
##########                DOCK_Rotatable_Bonds:                   8
##########                       Formal_Charge:        -2.23517e-07
##########                     HBond_Acceptors:                   8
##########                        HBond_Donors:                   1
##########                         Heavy_Atoms:                  25
##########                          Grid_Score:          -33.623554
##########                     Grid_vdw_energy:          -32.583229
##########                      Grid_es_energy:           -1.040327
##########           Internal_energy_repulsive:           24.494894

@<TRIPOS>MOLECULE
ZINC000015179664
 44 45 1 0 0
SMALL
USER_CHARGES


@<TRIPOS>ATOM
      1 C1         -6.5145    3.1185   50.2616 C.3     1  ZINC000015179664   -0.1600
      2 C2         -6.2291    2.6308   51.6835 C.3     1  ZINC000015179664    0.1800
      3 H3         -6.7523    3.2667   52.3975 H       1  ZINC000015179664    0.1200
      4 C4         -4.7468    2.6925   51.9477 C.ar    1  ZINC000015179664   -0.1000
      5 C5         -4.2812    3.1134   53.1791 C.ar    1  ZINC000015179664   -0.0700
      6 C6         -2.9212    3.1699   53.4215 C.ar    1  ZINC000015179664   -0.1200
      7 C7         -2.0272    2.8051   52.4325 C.ar    1  ZINC000015179664   -0.0500
      8 C8         -2.4929    2.3830   51.2011 C.ar    1  ZINC000015179664   -0.0400
      9 N9         -1.5356    1.9927   50.1418 N.pl3   1  ZINC000015179664    0.0300
     10 O10        -0.3375    2.0433   50.3550 O.2     1  ZINC000015179664   -0.1600
     11 O11        -1.9460    1.6210   49.0570 O.2     1  ZINC000015179664   -0.1500
     12 C12        -3.8526    2.3224   50.9602 C.ar    1  ZINC000015179664   -0.0400
     13 N13        -6.6938    1.2490   51.8281 N.am    1  ZINC000015179664   -0.6100
     14 C14        -5.8807    0.1449   51.3123 C.3     1  ZINC000015179664    0.0600
     15 C15        -7.8693    0.9935   52.4359 C.2     1  ZINC000015179664    0.5200
     16 O16        -8.2546   -0.1504   52.5545 O.2     1  ZINC000015179664   -0.5200
     17 C17        -8.7048    2.1290   52.9684 C.3     1  ZINC000015179664   -0.1500
     18 C18       -10.0978    1.6108   53.3313 C.3     1  ZINC000015179664    0.1300
     19 N19       -10.0970    1.1374   54.7176 N.am    1  ZINC000015179664   -0.7300
     20 C20       -10.5369   -0.1034   55.0063 C.2     1  ZINC000015179664    0.5800
     21 O21       -10.9362   -0.8296   54.1159 O.2     1  ZINC000015179664   -0.5300
     22 C22       -10.5344   -0.5797   56.3991 C.2     1  ZINC000015179664   -0.1500
     23 C23       -10.0853    0.1644   57.4452 C.2     1  ZINC000015179664   -0.2200
     24 S24       -10.2301   -0.6980   58.9082 S.3     1  ZINC000015179664    0.1900
     25 C25       -10.9126   -2.0995   58.1018 C.2     1  ZINC000015179664   -0.2300
     26 C26       -11.0142   -1.8829   56.7958 C.2     1  ZINC000015179664   -0.0900
     27 H27        -6.1687    4.1466   50.1539 H       1  ZINC000015179664    0.0800
     28 H28        -5.9912    2.4826   49.5475 H       1  ZINC000015179664    0.0600
     29 H29        -7.5867    3.0739   50.0705 H       1  ZINC000015179664    0.0700
     30 H30        -4.9797    3.3985   53.9518 H       1  ZINC000015179664    0.1500
     31 H31        -2.5574    3.4996   54.3834 H       1  ZINC000015179664    0.1500
     32 H32        -0.9649    2.8499   52.6216 H       1  ZINC000015179664    0.1600
     33 H33        -4.2165    1.9928   49.9983 H       1  ZINC000015179664    0.1600
     34 H34        -5.1679   -0.1686   52.0748 H       1  ZINC000015179664    0.0600
     35 H35        -6.5281   -0.6931   51.0537 H       1  ZINC000015179664    0.0800
     36 H36        -5.3414    0.4749   50.4243 H       1  ZINC000015179664    0.0800
     37 H37        -8.2290    2.5447   53.8566 H       1  ZINC000015179664    0.1000
     38 H38        -8.7923    2.9038   52.2068 H       1  ZINC000015179664    0.1000
     39 H39       -10.8246    2.4160   53.2227 H       1  ZINC000015179664    0.0800
     40 H40       -10.3643    0.7889   52.6668 H       1  ZINC000015179664    0.0800
     41 H41        -9.7797    1.7169   55.4278 H       1  ZINC000015179664    0.4000
     42 H42        -9.6903    1.1660   57.3604 H       1  ZINC000015179664    0.1700
     43 H43       -11.2121   -3.0101   58.5993 H       1  ZINC000015179664    0.1700
     44 H44       -11.4081   -2.6094   56.1006 H       1  ZINC000015179664    0.1600
@<TRIPOS>BOND
     1     1     2    1
     2     1    27    1
     3     1    28    1
     4     1    29    1
     5     2     3    1
     6     2     4    1
     7     2    13    1
     8     4    12   ar
     9     4     5   ar
    10     5     6   ar
    11     5    30    1
    12     6     7   ar
    13     6    31    1
    14     7     8   ar
    15     7    32    1
    16     8     9    1
    17     8    12   ar
    18     9    10    2
    19     9    11    2
    20    12    33    1
    21    13    14    1
    22    13    15   am
    23    14    34    1
    24    14    35    1
    25    14    36    1
    26    15    16    2
    27    15    17    1
    28    17    18    1
    29    17    37    1
    30    17    38    1
    31    18    19    1
    32    18    39    1
    33    18    40    1
    34    19    20   am
    35    19    41    1
    36    20    21    2
    37    20    22    1
    38    22    26    1
    39    22    23    2
    40    23    24    1
    41    23    42    1
    42    24    25    1
    43    25    26    2
    44    25    43    1
    45    26    44    1
@<TRIPOS>SUBSTRUCTURE
     1 ZINC000015179664        1 TEMP              0 ****  ****    0 ROOT


##########                                Name:    ZINC000442010511
##########                DOCK_Rotatable_Bonds:                  11
##########                         Heavy_Atoms:                  31
##########                    Molecular_Weight:             422.481
##########                DOCK_Rotatable_Bonds:                  11
##########                       Formal_Charge:          -0.0200005
##########                     HBond_Acceptors:                   7
##########                        HBond_Donors:                   2
##########                         Heavy_Atoms:                  31
##########                          Grid_Score:          -33.607445
##########                     Grid_vdw_energy:          -32.802105
##########                      Grid_es_energy:           -0.805338
##########           Internal_energy_repulsive:           11.637473

@<TRIPOS>MOLECULE
ZINC000442010511
 57 59 1 0 0
SMALL
USER_CHARGES


@<TRIPOS>ATOM
      1 C1         -7.7517    0.3023   62.8461 C.3     1  ZINC000442010511   -0.1500
      2 C2         -7.8323    0.7442   61.3835 C.3     1  ZINC000442010511   -0.0500
      3 C3         -8.9717    0.0287   60.7046 C.2     1  ZINC000442010511    0.0000
      4 C4        -10.1489   -0.2911   61.2712 C.2     1  ZINC000442010511   -0.2100
      5 C5        -10.9148   -0.9486   60.2812 C.2     1  ZINC000442010511   -0.1900
      6 C6        -10.1598   -0.9911   59.1688 C.2     1  ZINC000442010511   -0.0300
      7 C7        -10.5649   -1.6005   57.8515 C.3     1  ZINC000442010511    0.2400
      8 H8         -9.7436   -2.2016   57.4613 H       1  ZINC000442010511    0.1400
      9 C9        -11.7940   -2.4882   58.0566 C.3     1  ZINC000442010511    0.0500
     10 O10       -12.9790   -1.7109   57.8730 O.3     1  ZINC000442010511   -0.3800
     11 C11       -14.1824   -2.3914   58.2345 C.3     1  ZINC000442010511    0.0300
     12 N12       -10.8857   -0.5350   56.8985 N.am    1  ZINC000442010511   -0.6900
     13 C13       -10.8145   -0.7719   55.5736 C.2     1  ZINC000442010511    0.5200
     14 O14       -10.4833   -1.8674   55.1700 O.2     1  ZINC000442010511   -0.5100
     15 C15       -11.1433    0.3137   54.6023 C.2     1  ZINC000442010511    0.5100
     16 O16       -11.7803    1.2809   54.9659 O.2     1  ZINC000442010511   -0.5000
     17 N17       -10.7328    0.2195   53.3221 N.am    1  ZINC000442010511   -0.6300
     18 C18       -11.0407    1.2361   52.4123 C.ar    1  ZINC000442010511    0.1200
     19 C19       -12.1152    1.0929   51.5463 C.ar    1  ZINC000442010511   -0.1000
     20 C20       -12.4173    2.0990   50.6482 C.ar    1  ZINC000442010511   -0.1300
     21 C21       -11.6513    3.2495   50.6098 C.ar    1  ZINC000442010511   -0.0900
     22 C22       -10.5786    3.3998   51.4690 C.ar    1  ZINC000442010511   -0.1700
     23 C23       -10.2722    2.3991   52.3769 C.ar    1  ZINC000442010511    0.1000
     24 O24        -9.2179    2.5453   53.2223 O.3     1  ZINC000442010511   -0.2600
     25 C25        -7.9718    2.3094   52.7349 C.ar    1  ZINC000442010511    0.0800
     26 C26        -7.3180    3.2855   51.9965 C.ar    1  ZINC000442010511   -0.1300
     27 C27        -6.0509    3.0433   51.5024 C.ar    1  ZINC000442010511   -0.1100
     28 C28        -5.4344    1.8291   51.7427 C.ar    1  ZINC000442010511   -0.0800
     29 C29        -4.0523    1.5675   51.2020 C.3     1  ZINC000442010511   -0.1200
     30 C30        -6.0834    0.8549   52.4785 C.ar    1  ZINC000442010511   -0.1100
     31 C31        -7.3484    1.0940   52.9793 C.ar    1  ZINC000442010511   -0.1100
     32 O32        -8.9860   -0.3925   59.4295 O.3     1  ZINC000442010511   -0.1600
     33 H33        -8.6863    0.5458   63.3513 H       1  ZINC000442010511    0.0600
     34 H34        -7.5837   -0.7737   62.8917 H       1  ZINC000442010511    0.0600
     35 H35        -6.9276    0.8198   63.3371 H       1  ZINC000442010511    0.0700
     36 H36        -8.0002    1.8202   61.3379 H       1  ZINC000442010511    0.0900
     37 H37        -6.8977    0.5007   60.8783 H       1  ZINC000442010511    0.0800
     38 H38       -10.4510   -0.0858   62.2876 H       1  ZINC000442010511    0.1500
     39 H39       -11.9142   -1.3416   60.3962 H       1  ZINC000442010511    0.1500
     40 H40       -11.7784   -3.3033   57.3332 H       1  ZINC000442010511    0.0700
     41 H41       -11.7815   -2.8983   59.0666 H       1  ZINC000442010511    0.0700
     42 H42       -15.0359   -1.7347   58.0661 H       1  ZINC000442010511    0.0900
     43 H43       -14.2890   -3.2892   57.6258 H       1  ZINC000442010511    0.0400
     44 H44       -14.1402   -2.6694   59.2877 H       1  ZINC000442010511    0.0400
     45 H45       -11.1493    0.3410   57.2211 H       1  ZINC000442010511    0.4200
     46 H46       -10.2238   -0.5535   53.0316 H       1  ZINC000442010511    0.4300
     47 H47       -12.7152    0.1953   51.5737 H       1  ZINC000442010511    0.1600
     48 H48       -13.2538    1.9862   49.9743 H       1  ZINC000442010511    0.1300
     49 H49       -11.8914    4.0328   49.9062 H       1  ZINC000442010511    0.1300
     50 H50        -9.9821    4.2995   51.4357 H       1  ZINC000442010511    0.1300
     51 H51        -7.7994    4.2337   51.8080 H       1  ZINC000442010511    0.1300
     52 H52        -5.5416    3.8027   50.9277 H       1  ZINC000442010511    0.1300
     53 H53        -3.3096    1.8831   51.9348 H       1  ZINC000442010511    0.0700
     54 H54        -3.9358    0.5022   51.0023 H       1  ZINC000442010511    0.0700
     55 H55        -3.9116    2.1278   50.2777 H       1  ZINC000442010511    0.0700
     56 H56        -5.5996   -0.0925   52.6646 H       1  ZINC000442010511    0.1300
     57 H57        -7.8549    0.3328   53.5542 H       1  ZINC000442010511    0.1300
@<TRIPOS>BOND
     1     1     2    1
     2     1    33    1
     3     1    34    1
     4     1    35    1
     5     2     3    1
     6     2    36    1
     7     2    37    1
     8     3    32    1
     9     3     4    2
    10     4     5    1
    11     4    38    1
    12     5     6    2
    13     5    39    1
    14     6     7    1
    15     6    32    1
    16     7     8    1
    17     7     9    1
    18     7    12    1
    19     9    10    1
    20     9    40    1
    21     9    41    1
    22    10    11    1
    23    11    42    1
    24    11    43    1
    25    11    44    1
    26    12    13   am
    27    12    45    1
    28    13    14    2
    29    13    15    1
    30    15    16    2
    31    15    17   am
    32    17    18    1
    33    17    46    1
    34    18    23   ar
    35    18    19   ar
    36    19    20   ar
    37    19    47    1
    38    20    21   ar
    39    20    48    1
    40    21    22   ar
    41    21    49    1
    42    22    23   ar
    43    22    50    1
    44    23    24    1
    45    24    25    1
    46    25    31   ar
    47    25    26   ar
    48    26    27   ar
    49    26    51    1
    50    27    28   ar
    51    27    52    1
    52    28    29    1
    53    28    30   ar
    54    29    53    1
    55    29    54    1
    56    29    55    1
    57    30    31   ar
    58    30    56    1
    59    31    57    1
@<TRIPOS>SUBSTRUCTURE
     1 ZINC000442010511        1 TEMP              0 ****  ****    0 ROOT


##########                                Name:    ZINC000464139057
##########                DOCK_Rotatable_Bonds:                   9
##########                         Heavy_Atoms:                  30
##########                    Molecular_Weight:              413.56
##########                DOCK_Rotatable_Bonds:                   9
##########                       Formal_Charge:         2.38419e-07
##########                     HBond_Acceptors:                   6
##########                        HBond_Donors:                   2
##########                         Heavy_Atoms:                  30
##########                          Grid_Score:          -33.591713
##########                     Grid_vdw_energy:          -33.828156
##########                      Grid_es_energy:            0.236442
##########           Internal_energy_repulsive:           13.729541

@<TRIPOS>MOLECULE
ZINC000464139057
 65 67 1 0 0
SMALL
USER_CHARGES


@<TRIPOS>ATOM
      1 C1         -3.8063    1.1056   51.2057 C.3     1  ZINC000464139057   -0.1800
      2 C2         -4.1123    2.4811   50.6096 C.3     1  ZINC000464139057    0.0700
      3 H3         -4.3062    2.3801   49.5417 H       1  ZINC000464139057    0.1200
      4 C4         -5.3452    3.0756   51.3000 C.3     1  ZINC000464139057    0.0800
      5 N5         -4.9955    3.3740   52.6979 N.am    1  ZINC000464139057   -0.6100
      6 C6         -5.7713    2.9463   53.7135 C.2     1  ZINC000464139057    0.5600
      7 O7         -5.4657    3.2030   54.8615 O.2     1  ZINC000464139057   -0.5300
      8 C8         -6.9942    2.1647   53.4312 C.ar    1  ZINC000464139057   -0.1200
      9 C9         -6.9189    0.7810   53.2646 C.ar    1  ZINC000464139057   -0.0900
     10 C10        -8.0638    0.0576   53.0018 C.ar    1  ZINC000464139057   -0.1000
     11 C11        -9.2847    0.7009   52.9029 C.ar    1  ZINC000464139057   -0.0900
     12 C12       -10.5312   -0.0958   52.6152 C.3     1  ZINC000464139057    0.1800
     13 N13       -11.3680   -0.1440   53.8165 N.am    1  ZINC000464139057   -0.7400
     14 C14       -11.0920   -1.0289   54.7949 C.2     1  ZINC000464139057    0.7000
     15 O15       -10.1476   -1.7861   54.6812 O.2     1  ZINC000464139057   -0.5900
     16 N16       -11.8629   -1.0744   55.8995 N.am    1  ZINC000464139057   -0.7500
     17 C17       -11.5640   -2.0375   56.9622 C.3     1  ZINC000464139057    0.1400
     18 C18       -12.3513   -1.6685   58.2212 C.3     1  ZINC000464139057   -0.0900
     19 C19       -11.5243   -0.7456   59.0785 C.2     1  ZINC000464139057   -0.1200
     20 C20       -11.1200   -1.1390   60.2444 C.2     1  ZINC000464139057   -0.1500
     21 C21       -10.2885   -0.2220   61.1157 C.3     1  ZINC000464139057   -0.0900
     22 C22        -8.8875   -0.1107   60.5104 C.3     1  ZINC000464139057   -0.1100
     23 C23        -8.8442    0.9755   59.4502 C.3     1  ZINC000464139057   -0.1200
     24 C24        -9.6801    0.6613   58.2222 C.3     1  ZINC000464139057   -0.1100
     25 C25       -11.1651    0.6342   58.5698 C.3     1  ZINC000464139057   -0.0800
     26 C26        -9.3664    2.0723   53.0674 C.ar    1  ZINC000464139057   -0.1000
     27 C27        -8.2299    2.8067   53.3359 C.ar    1  ZINC000464139057   -0.0700
     28 C28        -3.7737    4.1531   52.9540 C.3     1  ZINC000464139057    0.0700
     29 C29        -2.6174    3.5061   52.1830 C.3     1  ZINC000464139057    0.0700
     30 H30        -2.3939    2.5299   52.6134 H       1  ZINC000464139057    0.0700
     31 C31        -1.3791    4.4002   52.2738 C.3     1  ZINC000464139057   -0.1500
     32 O32        -2.9942    3.3486   50.8120 O.3     1  ZINC000464139057   -0.3700
     33 H33        -3.6124    1.2073   52.2735 H       1  ZINC000464139057    0.0600
     34 H34        -4.6598    0.4452   51.0526 H       1  ZINC000464139057    0.0700
     35 H35        -2.9285    0.6843   50.7155 H       1  ZINC000464139057    0.0700
     36 H36        -5.6437    3.9927   50.7923 H       1  ZINC000464139057    0.0800
     37 H37        -6.1640    2.3566   51.2719 H       1  ZINC000464139057    0.1000
     38 H38        -5.9663    0.2778   53.3409 H       1  ZINC000464139057    0.1300
     39 H39        -8.0068   -1.0132   52.8727 H       1  ZINC000464139057    0.1300
     40 H40       -11.0858    0.3774   51.8048 H       1  ZINC000464139057    0.0800
     41 H41       -10.2555   -1.1091   52.3235 H       1  ZINC000464139057    0.0800
     42 H42       -12.1209    0.4608   53.9080 H       1  ZINC000464139057    0.4000
     43 H43       -12.6158   -0.4695   55.9909 H       1  ZINC000464139057    0.4000
     44 H44       -11.8481   -3.0381   56.6364 H       1  ZINC000464139057    0.0700
     45 H45       -10.4966   -2.0163   57.1821 H       1  ZINC000464139057    0.0700
     46 H46       -13.2771   -1.1681   57.9370 H       1  ZINC000464139057    0.0700
     47 H47       -12.5848   -2.5735   58.7820 H       1  ZINC000464139057    0.0800
     48 H48       -11.3778   -2.1269   60.5970 H       1  ZINC000464139057    0.1100
     49 H49       -10.7503    0.7646   61.1534 H       1  ZINC000464139057    0.0700
     50 H50       -10.2207   -0.6356   62.1219 H       1  ZINC000464139057    0.0700
     51 H51        -8.1740    0.1287   61.2988 H       1  ZINC000464139057    0.0600
     52 H52        -8.6151   -1.0644   60.0583 H       1  ZINC000464139057    0.0600
     53 H53        -9.2054    1.9056   59.8891 H       1  ZINC000464139057    0.0600
     54 H54        -7.8091    1.1188   59.1401 H       1  ZINC000464139057    0.0600
     55 H55        -9.5027    1.4229   57.4628 H       1  ZINC000464139057    0.0600
     56 H56        -9.3875   -0.3121   57.8283 H       1  ZINC000464139057    0.0600
     57 H57       -11.7533    0.8601   57.6803 H       1  ZINC000464139057    0.0700
     58 H58       -11.3728    1.3711   59.3457 H       1  ZINC000464139057    0.0700
     59 H59       -10.3226    2.5683   52.9893 H       1  ZINC000464139057    0.1300
     60 H60        -8.2950    3.8771   53.4644 H       1  ZINC000464139057    0.1300
     61 H61        -3.9140    5.1787   52.6127 H       1  ZINC000464139057    0.0800
     62 H62        -3.5518    4.1477   54.0211 H       1  ZINC000464139057    0.1000
     63 H63        -1.0950    4.5224   53.3190 H       1  ZINC000464139057    0.0800
     64 H64        -0.5574    3.9396   51.7254 H       1  ZINC000464139057    0.0700
     65 H65        -1.6027    5.3755   51.8417 H       1  ZINC000464139057    0.0700
@<TRIPOS>BOND
     1     1     2    1
     2     1    33    1
     3     1    34    1
     4     1    35    1
     5     2     3    1
     6     2    32    1
     7     2     4    1
     8     4     5    1
     9     4    36    1
    10     4    37    1
    11     5     6   am
    12     5    28    1
    13     6     7    2
    14     6     8    1
    15     8    27   ar
    16     8     9   ar
    17     9    10   ar
    18     9    38    1
    19    10    11   ar
    20    10    39    1
    21    11    12    1
    22    11    26   ar
    23    12    13    1
    24    12    40    1
    25    12    41    1
    26    13    14   am
    27    13    42    1
    28    14    15    2
    29    14    16   am
    30    16    17    1
    31    16    43    1
    32    17    18    1
    33    17    44    1
    34    17    45    1
    35    18    19    1
    36    18    46    1
    37    18    47    1
    38    19    25    1
    39    19    20    2
    40    20    21    1
    41    20    48    1
    42    21    22    1
    43    21    49    1
    44    21    50    1
    45    22    23    1
    46    22    51    1
    47    22    52    1
    48    23    24    1
    49    23    53    1
    50    23    54    1
    51    24    25    1
    52    24    55    1
    53    24    56    1
    54    25    57    1
    55    25    58    1
    56    26    27   ar
    57    26    59    1
    58    27    60    1
    59    28    29    1
    60    28    61    1
    61    28    62    1
    62    29    30    1
    63    29    31    1
    64    29    32    1
    65    31    63    1
    66    31    64    1
    67    31    65    1
@<TRIPOS>SUBSTRUCTURE
     1 ZINC000464139057        1 TEMP              0 ****  ****    0 ROOT


##########                                Name:    ZINC000892389374
##########                DOCK_Rotatable_Bonds:                   6
##########                         Heavy_Atoms:                  25
##########                    Molecular_Weight:             371.383
##########                DOCK_Rotatable_Bonds:                   6
##########                       Formal_Charge:          -0.0199998
##########                     HBond_Acceptors:                   9
##########                        HBond_Donors:                   1
##########                         Heavy_Atoms:                  25
##########                          Grid_Score:          -33.581997
##########                     Grid_vdw_energy:          -32.250122
##########                      Grid_es_energy:           -1.331876
##########           Internal_energy_repulsive:            9.458789

@<TRIPOS>MOLECULE
ZINC000892389374
 41 43 1 0 0
SMALL
USER_CHARGES


@<TRIPOS>ATOM
      1 C1         -7.1195    3.4050   50.6596 C.3     1  ZINC000892389374   -0.1000
      2 C2         -5.6344    3.1567   50.7227 C.ar    1  ZINC000892389374   -0.1800
      3 C3         -4.7577    4.2233   50.7651 C.ar    1  ZINC000892389374   -0.0400
      4 C4         -3.3953    3.9998   50.8235 C.ar    1  ZINC000892389374   -0.2100
      5 C5         -2.9029    2.7011   50.8391 C.ar    1  ZINC000892389374    0.2200
      6 N6         -1.5229    2.4759   50.8982 N.am    1  ZINC000892389374   -0.5700
      7 C7         -0.6470    2.8235   52.0277 C.3     1  ZINC000892389374    0.0600
      8 C8          0.7484    2.3614   51.5657 C.3     1  ZINC000892389374    0.0400
      9 O9          0.5151    1.8076   50.2384 O.3     1  ZINC000892389374   -0.3200
     10 C10        -0.7850    1.9031   49.9375 C.2     1  ZINC000892389374    0.6400
     11 O11        -1.2525    1.5138   48.8856 O.2     1  ZINC000892389374   -0.5000
     12 C12        -3.7806    1.6273   50.7967 C.ar    1  ZINC000892389374   -0.2300
     13 C13        -5.1485    1.8547   50.7439 C.ar    1  ZINC000892389374    0.2400
     14 N14        -6.0353    0.7767   50.7010 N.pl3   1  ZINC000892389374   -0.7400
     15 C15        -6.1556   -0.1194   51.8537 C.3     1  ZINC000892389374    0.2000
     16 C16        -7.3250    0.3084   52.7026 C.2     1  ZINC000892389374   -0.2400
     17 C17        -7.3208    1.2899   53.6096 C.2     1  ZINC000892389374    0.0600
     18 N18        -8.4725    1.4715   54.2237 N.2     1  ZINC000892389374   -0.4500
     19 C19        -9.4480    0.6977   53.8854 C.2     1  ZINC000892389374    0.0200
     20 C20       -10.8350    0.7513   54.4724 C.3     1  ZINC000892389374   -0.0900
     21 C21       -11.4951   -0.6233   54.3475 C.3     1  ZINC000892389374    0.4600
     22 F22       -12.6908   -0.6342   55.0737 F       1  ZINC000892389374   -0.1800
     23 F23       -11.7647   -0.8906   53.0011 F       1  ZINC000892389374   -0.1800
     24 F24       -10.6332   -1.6022   54.8537 F       1  ZINC000892389374   -0.1700
     25 S25        -8.9413   -0.3923   52.6694 S.3     1  ZINC000892389374    0.1900
     26 H26        -7.5211    3.4653   51.6711 H       1  ZINC000892389374    0.0700
     27 H27        -7.3093    4.3424   50.1369 H       1  ZINC000892389374    0.0700
     28 H28        -7.6023    2.5867   50.1252 H       1  ZINC000892389374    0.0600
     29 H29        -5.1378    5.2341   50.7523 H       1  ZINC000892389374    0.1300
     30 H30        -2.7125    4.8359   50.8565 H       1  ZINC000892389374    0.1200
     31 H31        -0.6558    3.8994   52.2018 H       1  ZINC000892389374    0.1000
     32 H32        -0.9501    2.2866   52.9265 H       1  ZINC000892389374    0.1000
     33 H33         1.4328    3.2079   51.5117 H       1  ZINC000892389374    0.1100
     34 H34         1.1386    1.5955   52.2360 H       1  ZINC000892389374    0.1100
     35 H35        -3.4000    0.6165   50.8085 H       1  ZINC000892389374    0.1600
     36 H36        -6.5718    0.6211   49.9078 H       1  ZINC000892389374    0.4000
     37 H37        -6.3134   -1.1401   51.5056 H       1  ZINC000892389374    0.0900
     38 H38        -5.2414   -0.0746   52.4457 H       1  ZINC000892389374    0.0800
     39 H39        -6.4452    1.8856   53.8218 H       1  ZINC000892389374    0.1800
     40 H40       -10.7738    1.0308   55.5242 H       1  ZINC000892389374    0.1300
     41 H41       -11.4291    1.4899   53.9342 H       1  ZINC000892389374    0.1400
@<TRIPOS>BOND
     1     1     2    1
     2     1    26    1
     3     1    27    1
     4     1    28    1
     5     2    13   ar
     6     2     3   ar
     7     3     4   ar
     8     3    29    1
     9     4     5   ar
    10     4    30    1
    11     5     6    1
    12     5    12   ar
    13     6    10   am
    14     6     7    1
    15     7     8    1
    16     7    31    1
    17     7    32    1
    18     8     9    1
    19     8    33    1
    20     8    34    1
    21     9    10    1
    22    10    11    2
    23    12    13   ar
    24    12    35    1
    25    13    14    1
    26    14    15    1
    27    14    36    1
    28    15    16    1
    29    15    37    1
    30    15    38    1
    31    16    25    1
    32    16    17    2
    33    17    18    1
    34    17    39    1
    35    18    19    2
    36    19    20    1
    37    19    25    1
    38    20    21    1
    39    20    40    1
    40    20    41    1
    41    21    22    1
    42    21    23    1
    43    21    24    1
@<TRIPOS>SUBSTRUCTURE
     1 ZINC000892389374        1 TEMP              0 ****  ****    0 ROOT


##########                                Name:    ZINC000537799672
##########                DOCK_Rotatable_Bonds:                   9
##########                         Heavy_Atoms:                  29
##########                    Molecular_Weight:             401.478
##########                DOCK_Rotatable_Bonds:                   9
##########                       Formal_Charge:        -4.47035e-07
##########                     HBond_Acceptors:                   6
##########                        HBond_Donors:                   1
##########                         Heavy_Atoms:                  29
##########                          Grid_Score:          -33.537861
##########                     Grid_vdw_energy:          -32.796925
##########                      Grid_es_energy:           -0.740936
##########           Internal_energy_repulsive:           14.493945

@<TRIPOS>MOLECULE
ZINC000537799672
 57 59 1 0 0
SMALL
USER_CHARGES


@<TRIPOS>ATOM
      1 C1         -6.5792    3.4550   54.7261 C.3     1  ZINC000537799672    0.0300
      2 O2         -6.1681    3.0301   53.4251 O.3     1  ZINC000537799672   -0.3800
      3 C3         -6.7079    1.7680   53.0282 C.3     1  ZINC000537799672    0.1200
      4 H4         -6.5459    1.0379   53.8212 H       1  ZINC000537799672    0.0900
      5 C5         -8.1860    1.9120   52.7723 C.ar    1  ZINC000537799672   -0.1300
      6 C6         -9.0628    0.9429   53.2234 C.ar    1  ZINC000537799672   -0.0600
      7 C7        -10.4185    1.0739   52.9892 C.ar    1  ZINC000537799672   -0.1500
      8 C8        -10.8986    2.1762   52.3027 C.ar    1  ZINC000537799672    0.1000
      9 F9        -12.2237    2.3055   52.0736 F       1  ZINC000537799672   -0.1400
     10 C10       -10.0196    3.1464   51.8517 C.ar    1  ZINC000537799672   -0.1500
     11 C11        -8.6648    3.0157   52.0913 C.ar    1  ZINC000537799672   -0.0800
     12 C12        -6.0128    1.2951   51.7499 C.3     1  ZINC000537799672    0.1600
     13 H13        -6.4003    1.8533   50.8977 H       1  ZINC000537799672    0.1000
     14 C14        -6.2804   -0.1975   51.5463 C.3     1  ZINC000537799672   -0.1600
     15 N15        -4.5700    1.5209   51.8665 N.am    1  ZINC000537799672   -0.7100
     16 C16        -3.9850    2.5147   51.1689 C.2     1  ZINC000537799672    0.5600
     17 O17        -4.6547    3.2245   50.4443 O.2     1  ZINC000537799672   -0.5400
     18 C18        -2.5287    2.7417   51.2852 C.ar    1  ZINC000537799672   -0.1400
     19 C19        -1.6349    1.9294   50.5859 C.ar    1  ZINC000537799672   -0.0800
     20 C20        -0.2770    2.1467   50.6984 C.ar    1  ZINC000537799672   -0.1300
     21 C21         0.1991    3.1669   51.5024 C.ar    1  ZINC000537799672   -0.0900
     22 C22        -0.6818    3.9757   52.1987 C.ar    1  ZINC000537799672   -0.1100
     23 C23        -2.0419    3.7730   52.0902 C.ar    1  ZINC000537799672   -0.0300
     24 C24        -2.9998    4.6550   52.8489 C.3     1  ZINC000537799672    0.1100
     25 O25        -2.3301    5.2289   53.9733 O.3     1  ZINC000537799672   -0.3800
     26 C26        -2.6667    4.6216   55.2223 C.3     1  ZINC000537799672    0.0900
     27 C27        -1.8533    3.3363   55.4029 C.3     1  ZINC000537799672   -0.1800
     28 C28        -2.1617    2.7351   56.7765 C.3     1  ZINC000537799672    0.0600
     29 O29        -1.8626    3.6941   57.7929 O.3     1  ZINC000537799672   -0.3800
     30 C30        -2.6276    4.8978   57.7026 C.3     1  ZINC000537799672    0.0600
     31 C31        -2.3379    5.5859   56.3660 C.3     1  ZINC000537799672   -0.1500
     32 H32        -6.3272    2.6857   55.4559 H       1  ZINC000537799672    0.0500
     33 H33        -6.0676    4.3822   54.9840 H       1  ZINC000537799672    0.0900
     34 H34        -7.6565    3.6210   54.7305 H       1  ZINC000537799672    0.0400
     35 H35        -8.6880    0.0831   53.7589 H       1  ZINC000537799672    0.1300
     36 H36       -11.1031    0.3163   53.3412 H       1  ZINC000537799672    0.1400
     37 H37       -10.3930    4.0065   51.3159 H       1  ZINC000537799672    0.1400
     38 H38        -7.9791    3.7725   51.7399 H       1  ZINC000537799672    0.1300
     39 H39        -7.3553   -0.3783   51.5538 H       1  ZINC000537799672    0.0700
     40 H40        -5.8656   -0.5138   50.5892 H       1  ZINC000537799672    0.0600
     41 H41        -5.8111   -0.7639   52.3506 H       1  ZINC000537799672    0.0700
     42 H42        -4.0357    0.9553   52.4457 H       1  ZINC000537799672    0.4000
     43 H43        -2.0052    1.1321   49.9585 H       1  ZINC000537799672    0.1300
     44 H44         0.4158    1.5188   50.1577 H       1  ZINC000537799672    0.1300
     45 H45         1.2629    3.3327   51.5872 H       1  ZINC000537799672    0.1300
     46 H46        -0.3038    4.7702   52.8249 H       1  ZINC000537799672    0.1400
     47 H47        -3.3578    5.4499   52.1945 H       1  ZINC000537799672    0.0800
     48 H48        -3.8455    4.0603   53.1942 H       1  ZINC000537799672    0.0800
     49 H49        -3.7310    4.3864   55.2382 H       1  ZINC000537799672    0.0600
     50 H50        -2.1221    2.6226   54.6241 H       1  ZINC000537799672    0.0800
     51 H51        -0.7898    3.5660   55.3363 H       1  ZINC000537799672    0.0800
     52 H52        -3.2173    2.4684   56.8278 H       1  ZINC000537799672    0.0500
     53 H53        -1.5536    1.8433   56.9279 H       1  ZINC000537799672    0.1000
     54 H54        -3.6894    4.6594   57.7659 H       1  ZINC000537799672    0.0500
     55 H55        -2.3551    5.5641   58.5210 H       1  ZINC000537799672    0.1000
     56 H56        -1.2842    5.8610   56.3189 H       1  ZINC000537799672    0.0800
     57 H57        -2.9533    6.4811   56.2761 H       1  ZINC000537799672    0.0800
@<TRIPOS>BOND
     1     1     2    1
     2     1    32    1
     3     1    33    1
     4     1    34    1
     5     2     3    1
     6     3     4    1
     7     3     5    1
     8     3    12    1
     9     5    11   ar
    10     5     6   ar
    11     6     7   ar
    12     6    35    1
    13     7     8   ar
    14     7    36    1
    15     8     9    1
    16     8    10   ar
    17    10    11   ar
    18    10    37    1
    19    11    38    1
    20    12    13    1
    21    12    14    1
    22    12    15    1
    23    14    39    1
    24    14    40    1
    25    14    41    1
    26    15    16   am
    27    15    42    1
    28    16    17    2
    29    16    18    1
    30    18    23   ar
    31    18    19   ar
    32    19    20   ar
    33    19    43    1
    34    20    21   ar
    35    20    44    1
    36    21    22   ar
    37    21    45    1
    38    22    23   ar
    39    22    46    1
    40    23    24    1
    41    24    25    1
    42    24    47    1
    43    24    48    1
    44    25    26    1
    45    26    31    1
    46    26    27    1
    47    26    49    1
    48    27    28    1
    49    27    50    1
    50    27    51    1
    51    28    29    1
    52    28    52    1
    53    28    53    1
    54    29    30    1
    55    30    31    1
    56    30    54    1
    57    30    55    1
    58    31    56    1
    59    31    57    1
@<TRIPOS>SUBSTRUCTURE
     1 ZINC000537799672        1 TEMP              0 ****  ****    0 ROOT


##########                                Name:    ZINC001000186632
##########                DOCK_Rotatable_Bonds:                   7
##########                         Heavy_Atoms:                  23
##########                    Molecular_Weight:             342.379
##########                DOCK_Rotatable_Bonds:                   7
##########                       Formal_Charge:          -0.0100001
##########                     HBond_Acceptors:                  11
##########                        HBond_Donors:                   2
##########                         Heavy_Atoms:                  23
##########                          Grid_Score:          -33.525276
##########                     Grid_vdw_energy:          -31.939949
##########                      Grid_es_energy:           -1.585328
##########           Internal_energy_repulsive:            4.911587

@<TRIPOS>MOLECULE
ZINC001000186632
 41 43 1 0 0
SMALL
USER_CHARGES


@<TRIPOS>ATOM
      1 O1         -1.2057    4.7985   55.5135 O.2     1  ZINC001000186632   -0.5200
      2 C2         -2.2977    4.2709   55.5185 C.2     1  ZINC001000186632    0.5300
      3 C3         -2.8415    3.6762   56.7919 C.3     1  ZINC001000186632   -0.0500
      4 C4         -1.7402    2.9442   57.5147 C.2     1  ZINC001000186632    0.2400
      5 N5         -1.4005    1.6974   57.3179 N.2     1  ZINC001000186632   -0.3000
      6 N6         -0.3370    1.4236   58.1934 N.pl3   1  ZINC001000186632   -0.4800
      7 C7         -0.1058    2.5591   58.8748 C.2     1  ZINC001000186632    0.2700
      8 N8         -0.9513    3.4644   58.4539 N.2     1  ZINC001000186632   -0.5400
      9 N9         -3.0274    4.2215   54.3864 N.am    1  ZINC001000186632   -0.7100
     10 C10        -2.4988    4.7996   53.1485 C.3     1  ZINC001000186632    0.1100
     11 C11        -1.7171    3.7968   52.2804 C.3     1  ZINC001000186632    0.1000
     12 N12        -3.0078    3.5127   51.6237 N.am    1  ZINC001000186632   -0.6500
     13 C13        -3.5139    2.4600   50.9512 C.2     1  ZINC001000186632    0.5100
     14 O14        -2.8408    1.4643   50.7878 O.2     1  ZINC001000186632   -0.5100
     15 C15        -4.9161    2.5200   50.4024 C.3     1  ZINC001000186632    0.1500
     16 N16        -5.8003    1.6960   51.2304 N.am    1  ZINC001000186632   -0.9800
     17 C17        -5.9085    0.2297   51.1961 C.3     1  ZINC001000186632    0.0800
     18 C18        -6.3232   -0.3033   52.5809 C.3     1  ZINC001000186632   -0.1300
     19 C19        -7.4783    0.6398   53.0256 C.3     1  ZINC001000186632   -0.6000
     20 S20        -6.8654    2.2483   52.3921 S.o2    1  ZINC001000186632    2.5700
     21 O21        -6.0598    2.9092   53.3583 O.2     1  ZINC001000186632   -0.9400
     22 O22        -7.8753    2.9337   51.6644 O.2     1  ZINC001000186632   -0.9600
     23 C23        -3.5218    4.8442   51.9989 C.3     1  ZINC001000186632    0.0900
     24 H24        -3.2276    4.4722   57.4288 H       1  ZINC001000186632    0.1300
     25 H25        -3.6452    2.9796   56.5535 H       1  ZINC001000186632    0.1200
     26 H26         0.1364    0.5822   58.2879 H       1  ZINC001000186632    0.4400
     27 H27         0.6488    2.7004   59.6346 H       1  ZINC001000186632    0.2200
     28 H28        -3.9025    3.8030   54.3913 H       1  ZINC001000186632    0.4100
     29 H29        -1.9775    5.7434   53.3088 H       1  ZINC001000186632    0.1200
     30 H30        -0.9831    4.2633   51.6234 H       1  ZINC001000186632    0.1000
     31 H31        -1.3136    2.9528   52.8397 H       1  ZINC001000186632    0.0900
     32 H32        -5.2665    3.5521   50.4127 H       1  ZINC001000186632    0.1100
     33 H33        -4.9222    2.1443   49.3793 H       1  ZINC001000186632    0.1100
     34 H34        -6.6570   -0.0602   50.4586 H       1  ZINC001000186632    0.0800
     35 H35        -4.9449   -0.1973   50.9184 H       1  ZINC001000186632    0.0900
     36 H36        -6.6786   -1.3307   52.5030 H       1  ZINC001000186632    0.1100
     37 H37        -5.4888   -0.2396   53.2794 H       1  ZINC001000186632    0.1000
     38 H38        -8.4194    0.3595   52.5526 H       1  ZINC001000186632    0.1400
     39 H39        -7.5755    0.6582   54.1111 H       1  ZINC001000186632    0.1400
     40 H40        -4.5591    4.8364   52.3335 H       1  ZINC001000186632    0.0900
     41 H41        -3.3180    5.6184   51.2591 H       1  ZINC001000186632    0.1100
@<TRIPOS>BOND
     1     1     2    2
     2     2     3    1
     3     2     9   am
     4     3     4    1
     5     3    24    1
     6     3    25    1
     7     4     8    1
     8     4     5    2
     9     5     6    1
    10     6     7    1
    11     6    26    1
    12     7     8    2
    13     7    27    1
    14     9    10    1
    15     9    28    1
    16    10    23    1
    17    10    11    1
    18    10    29    1
    19    11    12    1
    20    11    30    1
    21    11    31    1
    22    12    13   am
    23    12    23    1
    24    13    14    2
    25    13    15    1
    26    15    16    1
    27    15    32    1
    28    15    33    1
    29    16    20   am
    30    16    17    1
    31    17    18    1
    32    17    34    1
    33    17    35    1
    34    18    19    1
    35    18    36    1
    36    18    37    1
    37    19    20    1
    38    19    38    1
    39    19    39    1
    40    20    21    2
    41    20    22    2
    42    23    40    1
    43    23    41    1
@<TRIPOS>SUBSTRUCTURE
     1 ZINC001000186632        1 TEMP              0 ****  ****    0 ROOT


##########                                Name:    ZINC000471198073
##########                DOCK_Rotatable_Bonds:                  12
##########                         Heavy_Atoms:                  30
##########                    Molecular_Weight:             409.528
##########                DOCK_Rotatable_Bonds:                  12
##########                       Formal_Charge:          -0.0399998
##########                     HBond_Acceptors:                   6
##########                        HBond_Donors:                   3
##########                         Heavy_Atoms:                  30
##########                          Grid_Score:          -33.520298
##########                     Grid_vdw_energy:          -33.201462
##########                      Grid_es_energy:           -0.318836
##########           Internal_energy_repulsive:           40.386467

@<TRIPOS>MOLECULE
ZINC000471198073
 61 62 1 0 0
SMALL
USER_CHARGES


@<TRIPOS>ATOM
      1 C1         -5.8269    0.4180   51.9155 C.3     1  ZINC000471198073   -0.1400
      2 C2         -5.7629    1.6233   50.9752 C.3     1  ZINC000471198073   -0.1100
      3 C3         -6.7717    2.6796   51.4307 C.3     1  ZINC000471198073   -0.1500
      4 C4         -4.3748    2.2093   51.0034 C.2     1  ZINC000471198073    0.5200
      5 O5         -4.2245    3.4128   51.0028 O.2     1  ZINC000471198073   -0.5200
      6 N6         -3.3004    1.3960   51.0294 N.am    1  ZINC000471198073   -0.6700
      7 C7         -2.0115    1.9402   51.0556 C.ar    1  ZINC000471198073    0.1600
      8 C8         -1.5802    2.6529   52.1670 C.ar    1  ZINC000471198073   -0.1500
      9 C9         -0.3074    3.1904   52.1941 C.ar    1  ZINC000471198073   -0.0800
     10 C10         0.5402    3.0210   51.1168 C.ar    1  ZINC000471198073   -0.1300
     11 C11         0.1146    2.3092   50.0012 C.ar    1  ZINC000471198073    0.1500
     12 N12         0.9723    2.1385   48.9114 N.am    1  ZINC000471198073   -0.6400
     13 C13         2.1125    1.4344   49.0551 C.2     1  ZINC000471198073    0.5100
     14 O14         2.3943    0.9485   50.1310 O.2     1  ZINC000471198073   -0.5000
     15 C15         3.0292    1.2519   47.8902 C.2     1  ZINC000471198073    0.5100
     16 O16         4.1779    0.9043   48.0705 O.2     1  ZINC000471198073   -0.5100
     17 N17         2.5808    1.4732   46.6386 N.am    1  ZINC000471198073   -0.7000
     18 C18         3.4803    1.2959   45.4961 C.3     1  ZINC000471198073    0.1200
     19 C19         2.8710    1.9591   44.2593 C.3     1  ZINC000471198073   -0.0900
     20 H20         1.8516    1.5993   44.1191 H       1  ZINC000471198073    0.0800
     21 C21         2.8544    3.4770   44.4505 C.3     1  ZINC000471198073   -0.0800
     22 C22         2.1816    4.1249   43.2678 C.ar    1  ZINC000471198073   -0.0800
     23 C23         1.1891    3.4501   42.5820 C.ar    1  ZINC000471198073   -0.1200
     24 C24         0.5720    4.0443   41.4972 C.ar    1  ZINC000471198073   -0.1200
     25 C25         0.9472    5.3136   41.0983 C.ar    1  ZINC000471198073   -0.1200
     26 C26         1.9391    5.9888   41.7847 C.ar    1  ZINC000471198073   -0.1200
     27 C27         2.5532    5.3963   42.8722 C.ar    1  ZINC000471198073   -0.1200
     28 C28         3.7090    1.6093   43.0280 C.3     1  ZINC000471198073   -0.1000
     29 C29         5.1399    2.1142   43.2247 C.3     1  ZINC000471198073   -0.1600
     30 C30         3.7257    0.0913   42.8367 C.3     1  ZINC000471198073   -0.1700
     31 C31        -1.1611    1.7634   49.9736 C.ar    1  ZINC000471198073   -0.1400
     32 H32        -6.8309   -0.0058   51.8951 H       1  ZINC000471198073    0.0700
     33 H33        -5.1082   -0.3345   51.5910 H       1  ZINC000471198073    0.0600
     34 H34        -5.5872    0.7357   52.9302 H       1  ZINC000471198073    0.0600
     35 H35        -6.0027    1.3056   49.9605 H       1  ZINC000471198073    0.1000
     36 H36        -6.5320    2.9973   52.4454 H       1  ZINC000471198073    0.0600
     37 H37        -6.7262    3.5383   50.7608 H       1  ZINC000471198073    0.0600
     38 H38        -7.7758    2.2558   51.4103 H       1  ZINC000471198073    0.0700
     39 H39        -3.4206    0.4336   51.0297 H       1  ZINC000471198073    0.4100
     40 H40        -2.2405    2.7875   53.0110 H       1  ZINC000471198073    0.1300
     41 H41         0.0253    3.7444   53.0594 H       1  ZINC000471198073    0.1300
     42 H42         1.5343    3.4422   51.1410 H       1  ZINC000471198073    0.1400
     43 H43         0.7470    2.5267   48.0514 H       1  ZINC000471198073    0.4200
     44 H44         1.6623    1.7499   46.4944 H       1  ZINC000471198073    0.4200
     45 H45         4.4437    1.7555   45.7174 H       1  ZINC000471198073    0.0700
     46 H46         3.6207    0.2319   45.3058 H       1  ZINC000471198073    0.0800
     47 H47         2.3061    3.7226   45.3599 H       1  ZINC000471198073    0.0800
     48 H48         3.8774    3.8440   44.5326 H       1  ZINC000471198073    0.0800
     49 H49         0.8960    2.4584   42.8936 H       1  ZINC000471198073    0.1200
     50 H50        -0.2029    3.5168   40.9609 H       1  ZINC000471198073    0.1200
     51 H51         0.4656    5.7777   40.2504 H       1  ZINC000471198073    0.1200
     52 H52         2.2324    6.9804   41.4730 H       1  ZINC000471198073    0.1200
     53 H53         3.3282    5.9238   43.4085 H       1  ZINC000471198073    0.1200
     54 H54         3.2750    2.0818   42.1468 H       1  ZINC000471198073    0.0800
     55 H55         5.6075    1.5704   44.0455 H       1  ZINC000471198073    0.0600
     56 H56         5.7109    1.9532   42.3103 H       1  ZINC000471198073    0.0600
     57 H57         5.1207    3.1786   43.4585 H       1  ZINC000471198073    0.0600
     58 H58         2.7026   -0.2844   42.8238 H       1  ZINC000471198073    0.0600
     59 H59         4.2135   -0.1505   41.8925 H       1  ZINC000471198073    0.0600
     60 H60         4.2727   -0.3723   43.6576 H       1  ZINC000471198073    0.0700
     61 H61        -1.4942    1.2100   49.1080 H       1  ZINC000471198073    0.1400
@<TRIPOS>BOND
     1     1     2    1
     2     1    32    1
     3     1    33    1
     4     1    34    1
     5     2     3    1
     6     2     4    1
     7     2    35    1
     8     3    36    1
     9     3    37    1
    10     3    38    1
    11     4     5    2
    12     4     6   am
    13     6     7    1
    14     6    39    1
    15     7    31   ar
    16     7     8   ar
    17     8     9   ar
    18     8    40    1
    19     9    10   ar
    20     9    41    1
    21    10    11   ar
    22    10    42    1
    23    11    12    1
    24    11    31   ar
    25    12    13   am
    26    12    43    1
    27    13    14    2
    28    13    15    1
    29    15    16    2
    30    15    17   am
    31    17    18    1
    32    17    44    1
    33    18    19    1
    34    18    45    1
    35    18    46    1
    36    19    20    1
    37    19    21    1
    38    19    28    1
    39    21    22    1
    40    21    47    1
    41    21    48    1
    42    22    27   ar
    43    22    23   ar
    44    23    24   ar
    45    23    49    1
    46    24    25   ar
    47    24    50    1
    48    25    26   ar
    49    25    51    1
    50    26    27   ar
    51    26    52    1
    52    27    53    1
    53    28    29    1
    54    28    30    1
    55    28    54    1
    56    29    55    1
    57    29    56    1
    58    29    57    1
    59    30    58    1
    60    30    59    1
    61    30    60    1
    62    31    61    1
@<TRIPOS>SUBSTRUCTURE
     1 ZINC000471198073        1 TEMP              0 ****  ****    0 ROOT


##########                                Name:    ZINC000948289723
##########                DOCK_Rotatable_Bonds:                   6
##########                         Heavy_Atoms:                  24
##########                    Molecular_Weight:             331.415
##########                DOCK_Rotatable_Bonds:                   6
##########                       Formal_Charge:           0.0599999
##########                     HBond_Acceptors:                   6
##########                        HBond_Donors:                   1
##########                         Heavy_Atoms:                  24
##########                          Grid_Score:          -33.490459
##########                     Grid_vdw_energy:          -32.852489
##########                      Grid_es_energy:           -0.637969
##########           Internal_energy_repulsive:            7.277249

@<TRIPOS>MOLECULE
ZINC000948289723
 49 52 1 0 0
SMALL
USER_CHARGES


@<TRIPOS>ATOM
      1 C1        -11.7139   -0.1027   55.3266 C.3     1  ZINC000948289723   -0.1400
      2 C2        -11.2147    0.7315   54.1451 C.3     1  ZINC000948289723   -0.1100
      3 C3         -9.7599    1.2061   54.2972 C.3     1  ZINC000948289723   -0.1100
      4 C4         -9.5866    0.9010   52.7999 C.3     1  ZINC000948289723   -0.1400
      5 C5         -8.2611    0.2685   52.4623 C.2     1  ZINC000948289723    0.5400
      6 O6         -8.1136   -0.9296   52.5788 O.2     1  ZINC000948289723   -0.5300
      7 N7         -7.2395    1.0344   52.0308 N.am    1  ZINC000948289723   -0.6200
      8 C8         -7.2806    2.4922   51.8447 C.3     1  ZINC000948289723    0.1100
      9 C9         -5.8811    2.9328   51.3666 C.3     1  ZINC000948289723   -0.1100
     10 H10        -5.8531    3.0160   50.2802 H       1  ZINC000948289723    0.1000
     11 C11        -5.4777    4.2565   52.0194 C.3     1  ZINC000948289723   -0.1400
     12 C12        -4.9679    1.7762   51.8523 C.3     1  ZINC000948289723    0.1400
     13 H13        -4.6960    1.9066   52.8997 H       1  ZINC000948289723    0.1200
     14 N14        -3.7728    1.6627   51.0126 N.am    1  ZINC000948289723   -0.7100
     15 C15        -2.6023    2.1821   51.4327 C.2     1  ZINC000948289723    0.6100
     16 O16        -2.5378    2.7435   52.5092 O.2     1  ZINC000948289723   -0.5000
     17 C17        -1.3993    2.0695   50.5864 C.2     1  ZINC000948289723   -0.0900
     18 C18        -0.1360    2.4970   50.8919 C.2     1  ZINC000948289723   -0.1400
     19 C19         0.6233    2.1493   49.7525 C.2     1  ZINC000948289723    0.0500
     20 C20         2.0964    2.3894   49.5441 C.3     1  ZINC000948289723   -0.0900
     21 C21         3.0708    1.3935   50.1765 C.3     1  ZINC000948289723   -0.1600
     22 C22         2.8560    1.3968   48.6616 C.3     1  ZINC000948289723   -0.1600
     23 N23        -0.1977    1.5809   48.9182 N.2     1  ZINC000948289723   -0.3300
     24 O24        -1.3214    1.5200   49.3597 O.3     1  ZINC000948289723    0.1200
     25 C25        -5.8938    0.5500   51.6732 C.3     1  ZINC000948289723    0.0900
     26 C26       -10.7317   -0.1137   52.9547 C.3     1  ZINC000948289723   -0.1200
     27 H27       -10.9074   -0.7413   55.6871 H       1  ZINC000948289723    0.0600
     28 H28       -12.0381    0.5606   56.1284 H       1  ZINC000948289723    0.0600
     29 H29       -12.5518   -0.7218   55.0060 H       1  ZINC000948289723    0.0600
     30 H30       -11.9073    1.5251   53.8647 H       1  ZINC000948289723    0.0900
     31 H31        -9.6693    2.2649   54.5404 H       1  ZINC000948289723    0.0700
     32 H32        -9.1582    0.5689   54.9452 H       1  ZINC000948289723    0.1000
     33 H33        -9.8316    1.7423   52.1516 H       1  ZINC000948289723    0.1100
     34 H34        -8.0270    2.7491   51.0931 H       1  ZINC000948289723    0.0800
     35 H35        -7.5201    2.9799   52.7897 H       1  ZINC000948289723    0.0800
     36 H36        -5.4831    4.1434   53.1035 H       1  ZINC000948289723    0.0600
     37 H37        -4.4774    4.5351   51.6880 H       1  ZINC000948289723    0.0600
     38 H38        -6.1855    5.0339   51.7317 H       1  ZINC000948289723    0.0700
     39 H39        -3.8240    1.2138   50.1542 H       1  ZINC000948289723    0.4100
     40 H40         0.2018    2.9864   51.7934 H       1  ZINC000948289723    0.1800
     41 H41         2.4011    3.4351   49.5029 H       1  ZINC000948289723    0.1300
     42 H42         4.0168    1.7840   50.5515 H       1  ZINC000948289723    0.1100
     43 H43         2.6463    0.5648   50.7432 H       1  ZINC000948289723    0.1000
     44 H44         2.2902    0.5703   48.2318 H       1  ZINC000948289723    0.1000
     45 H45         3.6607    1.7894   48.0401 H       1  ZINC000948289723    0.1100
     46 H46        -5.5879   -0.2568   52.3392 H       1  ZINC000948289723    0.0900
     47 H47        -5.8808    0.2130   50.6367 H       1  ZINC000948289723    0.0800
     48 H48       -10.3956   -1.1119   53.2357 H       1  ZINC000948289723    0.0900
     49 H49       -11.4255   -0.1207   52.1141 H       1  ZINC000948289723    0.0800
@<TRIPOS>BOND
     1     1     2    1
     2     1    27    1
     3     1    28    1
     4     1    29    1
     5     2    26    1
     6     2     3    1
     7     2    30    1
     8     3     4    1
     9     3    31    1
    10     3    32    1
    11     4     5    1
    12     4    26    1
    13     4    33    1
    14     5     6    2
    15     5     7   am
    16     7    25    1
    17     7     8    1
    18     8     9    1
    19     8    34    1
    20     8    35    1
    21     9    10    1
    22     9    11    1
    23     9    12    1
    24    11    36    1
    25    11    37    1
    26    11    38    1
    27    12    13    1
    28    12    14    1
    29    12    25    1
    30    14    15   am
    31    14    39    1
    32    15    16    2
    33    15    17    1
    34    17    24    1
    35    17    18    2
    36    18    19    1
    37    18    40    1
    38    19    20    1
    39    19    23    2
    40    20    22    1
    41    20    21    1
    42    20    41    1
    43    21    22    1
    44    21    42    1
    45    21    43    1
    46    22    44    1
    47    22    45    1
    48    23    24    1
    49    25    46    1
    50    25    47    1
    51    26    48    1
    52    26    49    1
@<TRIPOS>SUBSTRUCTURE
     1 ZINC000948289723        1 TEMP              0 ****  ****    0 ROOT


##########                                Name:    ZINC001207290212
##########                DOCK_Rotatable_Bonds:                   8
##########                         Heavy_Atoms:                  23
##########                    Molecular_Weight:             344.435
##########                DOCK_Rotatable_Bonds:                   8
##########                       Formal_Charge:               -0.03
##########                     HBond_Acceptors:                   9
##########                        HBond_Donors:                   2
##########                         Heavy_Atoms:                  23
##########                          Grid_Score:          -33.422638
##########                     Grid_vdw_energy:          -31.314510
##########                      Grid_es_energy:           -2.108129
##########           Internal_energy_repulsive:            6.412261

@<TRIPOS>MOLECULE
ZINC001207290212
 47 48 1 0 0
SMALL
USER_CHARGES


@<TRIPOS>ATOM
      1 C1         -6.8994    4.2079   52.5744 C.3     1  ZINC001207290212   -0.1500
      2 C2         -7.9104    3.0809   52.3534 C.3     1  ZINC001207290212   -0.6300
      3 S3         -7.4280    1.6345   53.3360 S.o2    1  ZINC001207290212    2.6100
      4 O4         -7.2466    1.9952   54.6985 O.2     1  ZINC001207290212   -0.9500
      5 O5         -8.2092    0.5035   52.9754 O.2     1  ZINC001207290212   -0.9500
      6 N6         -5.9037    1.2641   52.8053 N.am    1  ZINC001207290212   -1.1100
      7 C7         -5.6807    0.9235   51.3981 C.3     1  ZINC001207290212    0.0900
      8 C8         -4.5572    1.7649   50.8495 C.2     1  ZINC001207290212    0.5100
      9 O9         -4.6735    2.3012   49.7678 O.2     1  ZINC001207290212   -0.5300
     10 N10        -3.4232    1.9215   51.5608 N.am    1  ZINC001207290212   -0.7200
     11 C11        -2.3318    2.7409   51.0284 C.3     1  ZINC001207290212    0.1400
     12 H12        -2.7314    3.5596   50.4299 H       1  ZINC001207290212    0.1000
     13 C13        -1.3781    1.8768   50.1827 C.3     1  ZINC001207290212    0.0200
     14 N14        -0.0557    1.9160   50.8439 N.3     1  ZINC001207290212   -0.5100
     15 C15         1.0291    1.8729   49.8543 C.3     1  ZINC001207290212    0.1300
     16 C16         2.3181    1.4963   50.5381 C.2     1  ZINC001207290212    0.0000
     17 C17         3.1192    2.3230   51.2304 C.2     1  ZINC001207290212   -0.0700
     18 O18         4.1587    1.5890   51.6735 O.3     1  ZINC001207290212   -0.2000
     19 C19         3.9808    0.3308   51.2491 C.2     1  ZINC001207290212    0.1900
     20 C20         4.9085   -0.8258   51.5187 C.3     1  ZINC001207290212   -0.0600
     21 N21         2.8707    0.2707   50.5703 N.2     1  ZINC001207290212   -0.4700
     22 C22        -0.0249    3.1865   51.6127 C.3     1  ZINC001207290212    0.0400
     23 C23        -1.4637    3.2936   52.1820 C.3     1  ZINC001207290212   -0.1000
     24 H24        -1.5722    2.6772   53.0744 H       1  ZINC001207290212    0.0900
     25 C25        -1.8185    4.7505   52.4860 C.3     1  ZINC001207290212   -0.1400
     26 H26        -6.8798    4.4764   53.6306 H       1  ZINC001207290212    0.0700
     27 H27        -5.9090    3.8731   52.2661 H       1  ZINC001207290212    0.0700
     28 H28        -7.1893    5.0770   51.9838 H       1  ZINC001207290212    0.0800
     29 H29        -8.9008    3.4157   52.6616 H       1  ZINC001207290212    0.1300
     30 H30        -7.9301    2.8124   51.2971 H       1  ZINC001207290212    0.1300
     31 H31        -5.1585    1.2726   53.4263 H       1  ZINC001207290212    0.4300
     32 H32        -5.4178   -0.1312   51.3168 H       1  ZINC001207290212    0.1000
     33 H33        -6.5902    1.1162   50.8290 H       1  ZINC001207290212    0.1100
     34 H34        -3.3298    1.4916   52.4253 H       1  ZINC001207290212    0.4100
     35 H35        -1.7433    0.8504   50.1434 H       1  ZINC001207290212    0.0800
     36 H36        -1.3017    2.2853   49.1750 H       1  ZINC001207290212    0.0500
     37 H37         0.7939    1.1329   49.0894 H       1  ZINC001207290212    0.0600
     38 H38         1.1369    2.8534   49.3904 H       1  ZINC001207290212    0.1000
     39 H39         2.9602    3.3778   51.3996 H       1  ZINC001207290212    0.2100
     40 H40         5.7535   -0.4824   52.1155 H       1  ZINC001207290212    0.0900
     41 H41         4.3716   -1.6031   52.0625 H       1  ZINC001207290212    0.1000
     42 H42         5.2714   -1.2286   50.5730 H       1  ZINC001207290212    0.1000
     43 H43         0.7054    3.1301   52.4198 H       1  ZINC001207290212    0.0900
     44 H44         0.1910    4.0287   50.9553 H       1  ZINC001207290212    0.0500
     45 H45        -1.7328    5.3431   51.5752 H       1  ZINC001207290212    0.0600
     46 H46        -2.8409    4.8049   52.8600 H       1  ZINC001207290212    0.0600
     47 H47        -1.1348    5.1413   53.2396 H       1  ZINC001207290212    0.0600
@<TRIPOS>BOND
     1     1     2    1
     2     1    26    1
     3     1    27    1
     4     1    28    1
     5     2     3    1
     6     2    29    1
     7     2    30    1
     8     3     4    2
     9     3     5    2
    10     3     6   am
    11     6     7    1
    12     6    31    1
    13     7     8    1
    14     7    32    1
    15     7    33    1
    16     8     9    2
    17     8    10   am
    18    10    11    1
    19    10    34    1
    20    11    12    1
    21    11    23    1
    22    11    13    1
    23    13    14    1
    24    13    35    1
    25    13    36    1
    26    14    15    1
    27    14    22    1
    28    15    16    1
    29    15    37    1
    30    15    38    1
    31    16    21    1
    32    16    17    2
    33    17    18    1
    34    17    39    1
    35    18    19    1
    36    19    20    1
    37    19    21    2
    38    20    40    1
    39    20    41    1
    40    20    42    1
    41    22    23    1
    42    22    43    1
    43    22    44    1
    44    23    24    1
    45    23    25    1
    46    25    45    1
    47    25    46    1
    48    25    47    1
@<TRIPOS>SUBSTRUCTURE
     1 ZINC001207290212        1 TEMP              0 ****  ****    0 ROOT


##########                                Name:    ZINC000182044395
##########                DOCK_Rotatable_Bonds:                   8
##########                         Heavy_Atoms:                  28
##########                    Molecular_Weight:             398.889
##########                DOCK_Rotatable_Bonds:                   8
##########                       Formal_Charge:          -0.0399999
##########                     HBond_Acceptors:                   6
##########                        HBond_Donors:                   2
##########                         Heavy_Atoms:                  28
##########                          Grid_Score:          -33.363670
##########                     Grid_vdw_energy:          -31.089964
##########                      Grid_es_energy:           -2.273707
##########           Internal_energy_repulsive:           17.781342

@<TRIPOS>MOLECULE
ZINC000182044395
 51 53 1 0 0
SMALL
USER_CHARGES


@<TRIPOS>ATOM
      1 C1         -0.2855    4.5581   54.2479 C.3     1  ZINC000182044395   -0.1800
      2 C2         -0.7664    5.1800   52.9353 C.3     1  ZINC000182044395    0.0800
      3 N3         -1.0913    4.1166   51.9813 N.pl3   1  ZINC000182044395   -0.4800
      4 C4         -2.3752    3.7718   51.8184 C.2     1  ZINC000182044395    0.2500
      5 C5         -2.7648    2.7814   50.9406 C.2     1  ZINC000182044395   -0.3500
      6 C6         -4.1862    2.4324   50.7902 C.2     1  ZINC000182044395    0.5900
      7 O7         -4.7269    2.5376   49.7056 O.2     1  ZINC000182044395   -0.5600
      8 N8         -4.8892    1.9960   51.8541 N.am    1  ZINC000182044395   -0.7200
      9 C9         -6.3046    1.6484   51.7042 C.3     1  ZINC000182044395    0.1100
     10 H10        -6.6909    2.0870   50.7843 H       1  ZINC000182044395    0.0900
     11 C11        -6.4526    0.1268   51.6453 C.3     1  ZINC000182044395   -0.1600
     12 C12        -7.0922    2.1916   52.8983 C.3     1  ZINC000182044395    0.1100
     13 H13        -8.1192    1.8296   52.8509 H       1  ZINC000182044395    0.1100
     14 O14        -6.4851    1.7450   54.1122 O.3     1  ZINC000182044395   -0.5500
     15 C15        -7.0882    3.7211   52.8586 C.3     1  ZINC000182044395   -0.1100
     16 C16        -7.8311    4.1938   51.6357 C.ar    1  ZINC000182044395   -0.0800
     17 C17        -9.1179    3.7501   51.3942 C.ar    1  ZINC000182044395   -0.1000
     18 C18        -9.7993    4.1833   50.2722 C.ar    1  ZINC000182044395   -0.1200
     19 C19        -9.1942    5.0609   49.3921 C.ar    1  ZINC000182044395   -0.1200
     20 C20        -7.9056    5.5008   49.6310 C.ar    1  ZINC000182044395   -0.1200
     21 C21        -7.2257    5.0706   50.7551 C.ar    1  ZINC000182044395   -0.1200
     22 C22        -1.7350    2.0757   50.1620 C.2     1  ZINC000182044395    0.4400
     23 O23        -2.0275    1.1901   49.3778 O.2     1  ZINC000182044395   -0.4900
     24 C24        -0.3342    2.4894   50.3668 C.ar    1  ZINC000182044395   -0.1800
     25 C25         0.7075    1.8800   49.6680 C.ar    1  ZINC000182044395   -0.0200
     26 C26         2.0057    2.2875   49.8892 C.ar    1  ZINC000182044395   -0.0700
     27 Cl27        3.3080    1.5333   49.0235 Cl      1  ZINC000182044395   -0.0500
     28 C28         2.2761    3.2991   50.8010 C.ar    1  ZINC000182044395   -0.0500
     29 C29         1.2561    3.9096   51.4974 C.ar    1  ZINC000182044395   -0.1600
     30 C30        -0.0626    3.5135   51.2901 C.ar    1  ZINC000182044395    0.1900
     31 H31         0.6026    3.9546   54.0601 H       1  ZINC000182044395    0.0700
     32 H32        -0.0438    5.3493   54.9577 H       1  ZINC000182044395    0.0800
     33 H33        -1.0726    3.9274   54.6610 H       1  ZINC000182044395    0.0700
     34 H34         0.0208    5.8107   52.5222 H       1  ZINC000182044395    0.1000
     35 H35        -1.6545    5.7834   53.1231 H       1  ZINC000182044395    0.1100
     36 H36        -3.1309    4.2866   52.3932 H       1  ZINC000182044395    0.1800
     37 H37        -4.4581    1.9120   52.7189 H       1  ZINC000182044395    0.4100
     38 H38        -5.8915   -0.2601   50.7947 H       1  ZINC000182044395    0.0600
     39 H39        -6.0662   -0.3118   52.5653 H       1  ZINC000182044395    0.0600
     40 H40        -7.5056   -0.1318   51.5339 H       1  ZINC000182044395    0.0600
     41 H41        -5.5208    1.8179   54.1199 H       1  ZINC000182044395    0.3700
     42 H42        -6.0600    4.0809   52.8208 H       1  ZINC000182044395    0.0800
     43 H43        -7.5763    4.1090   53.7528 H       1  ZINC000182044395    0.0800
     44 H44        -9.5908    3.0648   52.0820 H       1  ZINC000182044395    0.1200
     45 H45       -10.8044    3.8364   50.0833 H       1  ZINC000182044395    0.1200
     46 H46        -9.7265    5.3994   48.5154 H       1  ZINC000182044395    0.1200
     47 H47        -7.4312    6.1830   48.9410 H       1  ZINC000182044395    0.1200
     48 H48        -6.2203    5.4171   50.9436 H       1  ZINC000182044395    0.1200
     49 H49         0.4984    1.0935   48.9580 H       1  ZINC000182044395    0.1500
     50 H50         3.2968    3.6110   50.9659 H       1  ZINC000182044395    0.1500
     51 H51         1.4792    4.6955   52.2037 H       1  ZINC000182044395    0.1500
@<TRIPOS>BOND
     1     1     2    1
     2     1    31    1
     3     1    32    1
     4     1    33    1
     5     2     3    1
     6     2    34    1
     7     2    35    1
     8     3    30    1
     9     3     4    1
    10     4     5    2
    11     4    36    1
    12     5     6    1
    13     5    22    1
    14     6     7    2
    15     6     8   am
    16     8     9    1
    17     8    37    1
    18     9    10    1
    19     9    11    1
    20     9    12    1
    21    11    38    1
    22    11    39    1
    23    11    40    1
    24    12    13    1
    25    12    14    1
    26    12    15    1
    27    14    41    1
    28    15    16    1
    29    15    42    1
    30    15    43    1
    31    16    21   ar
    32    16    17   ar
    33    17    18   ar
    34    17    44    1
    35    18    19   ar
    36    18    45    1
    37    19    20   ar
    38    19    46    1
    39    20    21   ar
    40    20    47    1
    41    21    48    1
    42    22    23    2
    43    22    24    1
    44    24    30   ar
    45    24    25   ar
    46    25    26   ar
    47    25    49    1
    48    26    27    1
    49    26    28   ar
    50    28    29   ar
    51    28    50    1
    52    29    30   ar
    53    29    51    1
@<TRIPOS>SUBSTRUCTURE
     1 ZINC000182044395        1 TEMP              0 ****  ****    0 ROOT


##########                                Name:    ZINC000523863446
##########                DOCK_Rotatable_Bonds:                  10
##########                         Heavy_Atoms:                  29
##########                    Molecular_Weight:             396.533
##########                DOCK_Rotatable_Bonds:                  10
##########                       Formal_Charge:          -0.0200008
##########                     HBond_Acceptors:                   6
##########                        HBond_Donors:                   1
##########                         Heavy_Atoms:                  29
##########                          Grid_Score:          -33.361664
##########                     Grid_vdw_energy:          -32.797859
##########                      Grid_es_energy:           -0.563806
##########           Internal_energy_repulsive:           20.685747

@<TRIPOS>MOLECULE
ZINC000523863446
 61 63 1 0 0
SMALL
USER_CHARGES


@<TRIPOS>ATOM
      1 C1        -15.2592    1.2426   47.6565 C.3     1  ZINC000523863446   -0.1700
      2 C2        -14.4410    0.1731   48.3829 C.3     1  ZINC000523863446    0.1500
      3 H3        -13.4430    0.1213   47.9477 H       1  ZINC000523863446    0.1300
      4 C4        -14.3342    0.5281   49.8435 C.2     1  ZINC000523863446    0.5100
      5 O5        -15.0377   -0.0328   50.6569 O.2     1  ZINC000523863446   -0.5100
      6 N6        -13.4572    1.4690   50.2460 N.am    1  ZINC000523863446   -0.6000
      7 C7        -12.6089    2.1479   49.2633 C.3     1  ZINC000523863446    0.0700
      8 C8        -13.3523    1.8129   51.6663 C.3     1  ZINC000523863446    0.1000
      9 C9        -12.4319    0.8368   52.3527 C.2     1  ZINC000523863446    0.5000
     10 O10       -12.5348   -0.3514   52.1324 O.2     1  ZINC000523863446   -0.5200
     11 N11       -11.4947    1.2843   53.2116 N.am    1  ZINC000523863446   -0.7200
     12 C12       -10.5988    0.3356   53.8776 C.3     1  ZINC000523863446    0.1900
     13 H13       -10.9590   -0.6802   53.7145 H       1  ZINC000523863446    0.1000
     14 C14       -10.5680    0.6308   55.3785 C.3     1  ZINC000523863446   -0.1200
     15 C15       -11.4904   -0.3467   56.1097 C.3     1  ZINC000523863446   -0.0900
     16 C16       -10.7029   -1.6013   56.4928 C.3     1  ZINC000523863446   -0.1200
     17 C17       -11.6253   -2.5789   57.2240 C.3     1  ZINC000523863446   -0.1200
     18 C18       -12.1731   -1.9144   58.4887 C.3     1  ZINC000523863446   -0.1200
     19 C19       -12.9605   -0.6598   58.1054 C.3     1  ZINC000523863446   -0.1200
     20 C20       -12.0381    0.3178   57.3744 C.3     1  ZINC000523863446   -0.1100
     21 C21        -9.2096    0.4733   53.3100 C.ar    1  ZINC000523863446   -0.0900
     22 C22        -8.5535    1.6882   53.3753 C.ar    1  ZINC000523863446   -0.1100
     23 C23        -7.2792    1.8145   52.8546 C.ar    1  ZINC000523863446   -0.1200
     24 C24        -6.6609    0.7256   52.2690 C.ar    1  ZINC000523863446   -0.1200
     25 C25        -7.3165   -0.4896   52.2045 C.ar    1  ZINC000523863446   -0.1200
     26 C26        -8.5891   -0.6169   52.7290 C.ar    1  ZINC000523863446   -0.1000
     27 N27       -15.1025   -1.1266   48.2432 N.pl3   1  ZINC000523863446   -0.3600
     28 C28       -16.4272   -1.3592   48.3550 C.2     1  ZINC000523863446    0.0600
     29 C29       -16.6313   -2.6826   48.1596 C.2     1  ZINC000523863446   -0.2700
     30 C30       -15.3891   -3.2791   47.9203 C.2     1  ZINC000523863446    0.0500
     31 N31       -14.4726   -2.3462   47.9641 N.2     1  ZINC000523863446   -0.2900
     32 H32       -16.2573    1.2943   48.0916 H       1  ZINC000523863446    0.0700
     33 H33       -14.7670    2.2095   47.7603 H       1  ZINC000523863446    0.1000
     34 H34       -15.3364    0.9858   46.6000 H       1  ZINC000523863446    0.0800
     35 H35       -13.1184    3.0394   48.8977 H       1  ZINC000523863446    0.0700
     36 H36       -11.6674    2.4340   49.7322 H       1  ZINC000523863446    0.0800
     37 H37       -12.4097    1.4753   48.4291 H       1  ZINC000523863446    0.0800
     38 H38       -12.9524    2.8219   51.7672 H       1  ZINC000523863446    0.1100
     39 H39       -14.3398    1.7657   52.1254 H       1  ZINC000523863446    0.1100
     40 H40       -11.4133    2.2345   53.3888 H       1  ZINC000523863446    0.4000
     41 H41        -9.5497    0.5169   55.7505 H       1  ZINC000523863446    0.0800
     42 H42       -10.9072    1.6515   55.5551 H       1  ZINC000523863446    0.0700
     43 H43       -12.3182   -0.6227   55.4566 H       1  ZINC000523863446    0.0700
     44 H44       -10.3128   -2.0746   55.5920 H       1  ZINC000523863446    0.0600
     45 H45        -9.8751   -1.3253   57.1460 H       1  ZINC000523863446    0.0600
     46 H46       -12.4532   -2.8549   56.5709 H       1  ZINC000523863446    0.0600
     47 H47       -11.0644   -3.4727   57.4970 H       1  ZINC000523863446    0.0600
     48 H48       -12.8301   -2.6108   59.0095 H       1  ZINC000523863446    0.0600
     49 H49       -11.3452   -1.6384   59.1418 H       1  ZINC000523863446    0.0600
     50 H50       -13.7884   -0.9358   57.4523 H       1  ZINC000523863446    0.0600
     51 H51       -13.3507   -0.1864   59.0065 H       1  ZINC000523863446    0.0600
     52 H52       -11.2103    0.5937   58.0274 H       1  ZINC000523863446    0.0600
     53 H53       -12.5991    1.2115   57.1014 H       1  ZINC000523863446    0.0600
     54 H54        -9.0366    2.5389   53.8328 H       1  ZINC000523863446    0.1200
     55 H55        -6.7669    2.7639   52.9049 H       1  ZINC000523863446    0.1200
     56 H56        -5.6655    0.8245   51.8615 H       1  ZINC000523863446    0.1200
     57 H57        -6.8335   -1.3402   51.7467 H       1  ZINC000523863446    0.1200
     58 H58        -9.1015   -1.5664   52.6786 H       1  ZINC000523863446    0.1200
     59 H59       -17.1878   -0.6215   48.5634 H       1  ZINC000523863446    0.1700
     60 H60       -17.5850   -3.1888   48.1847 H       1  ZINC000523863446    0.1500
     61 H61       -15.2167   -4.3276   47.7275 H       1  ZINC000523863446    0.1800
@<TRIPOS>BOND
     1     1     2    1
     2     1    32    1
     3     1    33    1
     4     1    34    1
     5     2     3    1
     6     2     4    1
     7     2    27    1
     8     4     5    2
     9     4     6   am
    10     6     7    1
    11     6     8    1
    12     7    35    1
    13     7    36    1
    14     7    37    1
    15     8     9    1
    16     8    38    1
    17     8    39    1
    18     9    10    2
    19     9    11   am
    20    11    12    1
    21    11    40    1
    22    12    13    1
    23    12    14    1
    24    12    21    1
    25    14    15    1
    26    14    41    1
    27    14    42    1
    28    15    20    1
    29    15    16    1
    30    15    43    1
    31    16    17    1
    32    16    44    1
    33    16    45    1
    34    17    18    1
    35    17    46    1
    36    17    47    1
    37    18    19    1
    38    18    48    1
    39    18    49    1
    40    19    20    1
    41    19    50    1
    42    19    51    1
    43    20    52    1
    44    20    53    1
    45    21    26   ar
    46    21    22   ar
    47    22    23   ar
    48    22    54    1
    49    23    24   ar
    50    23    55    1
    51    24    25   ar
    52    24    56    1
    53    25    26   ar
    54    25    57    1
    55    26    58    1
    56    27    31    1
    57    27    28    1
    58    28    29    2
    59    28    59    1
    60    29    30    1
    61    29    60    1
    62    30    31    2
    63    30    61    1
@<TRIPOS>SUBSTRUCTURE
     1 ZINC000523863446        1 TEMP              0 ****  ****    0 ROOT


##########                                Name:    ZINC000751548479
##########                DOCK_Rotatable_Bonds:                   9
##########                         Heavy_Atoms:                  27
##########                    Molecular_Weight:             389.407
##########                DOCK_Rotatable_Bonds:                   9
##########                       Formal_Charge:           0.0199995
##########                     HBond_Acceptors:                   9
##########                        HBond_Donors:                   2
##########                         Heavy_Atoms:                  27
##########                          Grid_Score:          -33.359112
##########                     Grid_vdw_energy:          -33.780731
##########                      Grid_es_energy:            0.421618
##########           Internal_energy_repulsive:           11.767883

@<TRIPOS>MOLECULE
ZINC000751548479
 43 44 1 0 0
SMALL
USER_CHARGES


@<TRIPOS>ATOM
      1 C1         -1.7599    3.7133   51.5001 C.3     1  ZINC000751548479   -0.1600
      2 C2         -1.3452    2.5923   50.5448 C.3     1  ZINC000751548479    0.0800
      3 O3         -2.5192    2.0800   49.8611 O.3     1  ZINC000751548479   -0.3600
      4 C4         -3.5687    1.7288   50.6283 C.2     1  ZINC000751548479    0.6500
      5 O5         -3.3859    1.1378   51.6741 O.2     1  ZINC000751548479   -0.5400
      6 N6         -4.8217    2.0329   50.2361 N.am    1  ZINC000751548479   -0.6500
      7 C7         -5.9101    1.6687   51.0316 C.ar    1  ZINC000751548479    0.2000
      8 C8         -6.1444    0.3321   51.3198 C.ar    1  ZINC000751548479   -0.1000
      9 C9         -7.2200   -0.0296   52.1061 C.ar    1  ZINC000751548479   -0.1000
     10 C10        -8.0761    0.9411   52.6149 C.ar    1  ZINC000751548479    0.1300
     11 N11        -9.1639    0.5644   53.4106 N.am    1  ZINC000751548479   -1.0500
     12 S12       -10.5588    0.0209   52.7027 S.o2    1  ZINC000751548479    2.6800
     13 O13       -11.1083    1.1260   51.9983 O.2     1  ZINC000751548479   -0.9500
     14 O14       -10.2376   -1.2154   52.0803 O.2     1  ZINC000751548479   -0.9400
     15 C15       -11.6903   -0.3544   54.0003 C.2     1  ZINC000751548479   -0.7500
     16 C16       -11.3666   -1.2487   54.9239 C.2     1  ZINC000751548479    0.0700
     17 C17       -12.3148   -1.5622   56.0133 C.ar    1  ZINC000751548479   -0.1100
     18 C18       -11.8475   -2.0880   57.2186 C.ar    1  ZINC000751548479   -0.0600
     19 C19       -12.7367   -2.3784   58.2323 C.ar    1  ZINC000751548479   -0.1600
     20 C20       -14.0918   -2.1494   58.0554 C.ar    1  ZINC000751548479    0.1200
     21 F21       -14.9586   -2.4359   59.0512 F       1  ZINC000751548479   -0.1300
     22 C22       -14.5610   -1.6270   56.8607 C.ar    1  ZINC000751548479   -0.1600
     23 C23       -13.6799   -1.3282   55.8425 C.ar    1  ZINC000751548479   -0.0500
     24 C24        -7.8546    2.2794   52.3366 C.ar    1  ZINC000751548479   -0.0600
     25 C25        -6.7661    2.6538   51.5461 C.ar    1  ZINC000751548479   -0.0300
     26 C26        -6.5302    4.0358   51.2542 C.1     1  ZINC000751548479    0.2500
     27 N27        -6.3431    5.1321   51.0228 N.1     1  ZINC000751548479   -0.4000
     28 H28        -2.4659    3.3232   52.2332 H       1  ZINC000751548479    0.0700
     29 H29        -0.8785    4.0977   52.0133 H       1  ZINC000751548479    0.0900
     30 H30        -2.2304    4.5173   50.9343 H       1  ZINC000751548479    0.0700
     31 H31        -0.6390    2.9823   49.8118 H       1  ZINC000751548479    0.0800
     32 H32        -0.8745    1.7883   51.1106 H       1  ZINC000751548479    0.0800
     33 H33        -4.9676    2.5047   49.4012 H       1  ZINC000751548479    0.4200
     34 H34        -5.4841   -0.4273   50.9279 H       1  ZINC000751548479    0.1600
     35 H35        -7.3976   -1.0718   52.3269 H       1  ZINC000751548479    0.1700
     36 H36        -9.1009    0.6218   54.3769 H       1  ZINC000751548479    0.4300
     37 H37       -12.6473    0.1441   54.0432 H       1  ZINC000751548479    0.1700
     38 H38       -10.4100   -1.7482   54.8802 H       1  ZINC000751548479    0.1500
     39 H39       -10.7916   -2.2675   57.3573 H       1  ZINC000751548479    0.1400
     40 H40       -12.3761   -2.7854   59.1655 H       1  ZINC000751548479    0.1400
     41 H41       -15.6181   -1.4501   56.7280 H       1  ZINC000751548479    0.1400
     42 H42       -14.0465   -0.9208   54.9120 H       1  ZINC000751548479    0.1400
     43 H43        -8.5204    3.0320   52.7324 H       1  ZINC000751548479    0.1500
@<TRIPOS>BOND
     1     1     2    1
     2     1    28    1
     3     1    29    1
     4     1    30    1
     5     2     3    1
     6     2    31    1
     7     2    32    1
     8     3     4    1
     9     4     5    2
    10     4     6   am
    11     6     7    1
    12     6    33    1
    13     7    25   ar
    14     7     8   ar
    15     8     9   ar
    16     8    34    1
    17     9    10   ar
    18     9    35    1
    19    10    11    1
    20    10    24   ar
    21    11    12   am
    22    11    36    1
    23    12    13    2
    24    12    14    2
    25    12    15    1
    26    15    16    2
    27    15    37    1
    28    16    17    1
    29    16    38    1
    30    17    23   ar
    31    17    18   ar
    32    18    19   ar
    33    18    39    1
    34    19    20   ar
    35    19    40    1
    36    20    21    1
    37    20    22   ar
    38    22    23   ar
    39    22    41    1
    40    23    42    1
    41    24    25   ar
    42    24    43    1
    43    25    26    1
    44    26    27    3
@<TRIPOS>SUBSTRUCTURE
     1 ZINC000751548479        1 TEMP              0 ****  ****    0 ROOT


##########                                Name:    ZINC000623695407
##########                DOCK_Rotatable_Bonds:                  10
##########                         Heavy_Atoms:                  27
##########                    Molecular_Weight:             368.479
##########                DOCK_Rotatable_Bonds:                  10
##########                       Formal_Charge:           0.0299989
##########                     HBond_Acceptors:                   6
##########                        HBond_Donors:                   2
##########                         Heavy_Atoms:                  27
##########                          Grid_Score:          -33.302975
##########                     Grid_vdw_energy:          -31.009441
##########                      Grid_es_energy:           -2.293533
##########           Internal_energy_repulsive:           11.861168

@<TRIPOS>MOLECULE
ZINC000623695407
 55 57 1 0 0
SMALL
USER_CHARGES


@<TRIPOS>ATOM
      1 C1        -12.6958   -0.3447   52.3478 C.3     1  ZINC000623695407    0.0300
      2 O2        -11.8732   -0.5707   53.4943 O.3     1  ZINC000623695407   -0.3200
      3 C3        -10.5691   -0.1997   53.4007 C.ar    1  ZINC000623695407    0.1300
      4 C4         -9.7081   -0.8927   52.5623 C.ar    1  ZINC000623695407   -0.2100
      5 C5         -8.3831   -0.5133   52.4686 C.ar    1  ZINC000623695407   -0.0600
      6 C6         -7.9148    0.5558   53.2099 C.ar    1  ZINC000623695407   -0.1100
      7 C7         -6.4687    0.9672   53.1062 C.3     1  ZINC000623695407    0.0600
      8 N8         -6.2406    1.6338   51.8171 N.3     1  ZINC000623695407   -0.4600
      9 C9         -7.0317    2.8744   51.7164 C.3     1  ZINC000623695407    0.0000
     10 C10        -5.8060    3.5378   51.0728 C.3     1  ZINC000623695407   -0.1300
     11 C11        -5.0305    2.4755   51.8643 C.3     1  ZINC000623695407    0.0100
     12 H12        -4.7622    2.7944   52.8715 H       1  ZINC000623695407    0.0900
     13 C13        -3.8462    1.8863   51.0953 C.3     1  ZINC000623695407    0.1600
     14 N14        -2.6216    2.0529   51.8818 N.am    1  ZINC000623695407   -0.7400
     15 C15        -1.4704    2.3973   51.2715 C.2     1  ZINC000623695407    0.7100
     16 O16        -1.4479    2.5684   50.0679 O.2     1  ZINC000623695407   -0.5900
     17 N17        -0.3441    2.5521   51.9953 N.am    1  ZINC000623695407   -0.7400
     18 C18         0.9069    2.9283   51.3321 C.3     1  ZINC000623695407    0.1700
     19 H19         0.6832    3.5028   50.4332 H       1  ZINC000623695407    0.0900
     20 C20         1.7529    3.7776   52.2829 C.3     1  ZINC000623695407   -0.1600
     21 C21         1.6815    1.6652   50.9504 C.3     1  ZINC000623695407   -0.0900
     22 C22         2.9600    2.0516   50.2526 C.ar    1  ZINC000623695407   -0.0300
     23 C23         2.9874    2.2520   48.8810 C.ar    1  ZINC000623695407   -0.1700
     24 C24         4.1786    2.6056   48.2757 C.ar    1  ZINC000623695407    0.1000
     25 N25         5.2792    2.7518   48.9871 N.ar    1  ZINC000623695407   -0.4900
     26 C26         5.2904    2.5694   50.2930 C.ar    1  ZINC000623695407    0.1000
     27 C27         4.1358    2.2207   50.9678 C.ar    1  ZINC000623695407   -0.1700
     28 C28        -8.7711    1.2483   54.0458 C.ar    1  ZINC000623695407   -0.0700
     29 C29       -10.0982    0.8762   54.1392 C.ar    1  ZINC000623695407   -0.1500
     30 H30       -13.7103   -0.6849   52.5558 H       1  ZINC000623695407    0.1000
     31 H31       -12.7102    0.7201   52.1150 H       1  ZINC000623695407    0.0600
     32 H32       -12.2944   -0.8970   51.4981 H       1  ZINC000623695407    0.0600
     33 H33       -10.0733   -1.7282   51.9836 H       1  ZINC000623695407    0.1300
     34 H34        -7.7123   -1.0525   51.8160 H       1  ZINC000623695407    0.1200
     35 H35        -6.2271    1.6533   53.9178 H       1  ZINC000623695407    0.0600
     36 H36        -5.8338    0.0839   53.1757 H       1  ZINC000623695407    0.0700
     37 H37        -7.8847    2.7920   51.0428 H       1  ZINC000623695407    0.0900
     38 H38        -7.2976    3.2996   52.6842 H       1  ZINC000623695407    0.0700
     39 H39        -5.7502    3.4176   49.9908 H       1  ZINC000623695407    0.1000
     40 H40        -5.6268    4.5607   51.4041 H       1  ZINC000623695407    0.0800
     41 H41        -4.0213    0.8255   50.9157 H       1  ZINC000623695407    0.0700
     42 H42        -3.7389    2.4034   50.1417 H       1  ZINC000623695407    0.0700
     43 H43        -2.6393    1.9153   52.8418 H       1  ZINC000623695407    0.3900
     44 H44        -0.3618    2.4146   52.9553 H       1  ZINC000623695407    0.3900
     45 H45         2.6837    4.0573   51.7893 H       1  ZINC000623695407    0.0700
     46 H46         1.2011    4.6773   52.5547 H       1  ZINC000623695407    0.0700
     47 H47         1.9766    3.2030   53.1817 H       1  ZINC000623695407    0.0600
     48 H48         1.9161    1.0970   51.8505 H       1  ZINC000623695407    0.1000
     49 H49         1.0737    1.0540   50.2831 H       1  ZINC000623695407    0.0800
     50 H50         2.0895    2.1329   48.2929 H       1  ZINC000623695407    0.1300
     51 H51         4.2084    2.7635   47.2077 H       1  ZINC000623695407    0.1500
     52 H52         6.2114    2.6980   50.8421 H       1  ZINC000623695407    0.1600
     53 H53         4.1510    2.0730   52.0376 H       1  ZINC000623695407    0.1400
     54 H54        -8.4029    2.0833   54.6236 H       1  ZINC000623695407    0.1200
     55 H55       -10.7667    1.4174   54.7922 H       1  ZINC000623695407    0.1300
@<TRIPOS>BOND
     1     1     2    1
     2     1    30    1
     3     1    31    1
     4     1    32    1
     5     2     3    1
     6     3    29   ar
     7     3     4   ar
     8     4     5   ar
     9     4    33    1
    10     5     6   ar
    11     5    34    1
    12     6     7    1
    13     6    28   ar
    14     7     8    1
    15     7    35    1
    16     7    36    1
    17     8    11    1
    18     8     9    1
    19     9    10    1
    20     9    37    1
    21     9    38    1
    22    10    11    1
    23    10    39    1
    24    10    40    1
    25    11    12    1
    26    11    13    1
    27    13    14    1
    28    13    41    1
    29    13    42    1
    30    14    15   am
    31    14    43    1
    32    15    16    2
    33    15    17   am
    34    17    18    1
    35    17    44    1
    36    18    19    1
    37    18    20    1
    38    18    21    1
    39    20    45    1
    40    20    46    1
    41    20    47    1
    42    21    22    1
    43    21    48    1
    44    21    49    1
    45    22    27   ar
    46    22    23   ar
    47    23    24   ar
    48    23    50    1
    49    24    25   ar
    50    24    51    1
    51    25    26   ar
    52    26    27   ar
    53    26    52    1
    54    27    53    1
    55    28    29   ar
    56    28    54    1
    57    29    55    1
@<TRIPOS>SUBSTRUCTURE
     1 ZINC000623695407        1 TEMP              0 ****  ****    0 ROOT


##########                                Name:    ZINC000263872566
##########                DOCK_Rotatable_Bonds:                   9
##########                         Heavy_Atoms:                  26
##########                    Molecular_Weight:             362.469
##########                DOCK_Rotatable_Bonds:                   9
##########                       Formal_Charge:           0.0300001
##########                     HBond_Acceptors:                   6
##########                        HBond_Donors:                   2
##########                         Heavy_Atoms:                  26
##########                          Grid_Score:          -33.299065
##########                     Grid_vdw_energy:          -31.817137
##########                      Grid_es_energy:           -1.481928
##########           Internal_energy_repulsive:           24.127909

@<TRIPOS>MOLECULE
ZINC000263872566
 56 57 1 0 0
SMALL
USER_CHARGES


@<TRIPOS>ATOM
      1 C1        -13.9813   -1.1444   58.6288 C.3     1  ZINC000263872566   -0.1800
      2 C2        -13.3646   -2.1564   57.6611 C.3     1  ZINC000263872566    0.1400
      3 H3        -12.5080   -2.6365   58.1344 H       1  ZINC000263872566    0.0700
      4 O4        -14.3382   -3.1461   57.3225 O.3     1  ZINC000263872566   -0.5600
      5 C5        -12.9146   -1.4460   56.4106 C.ar    1  ZINC000263872566   -0.0800
      6 C6        -13.8104   -1.2238   55.3815 C.ar    1  ZINC000263872566   -0.0900
      7 C7        -13.3978   -0.5722   54.2343 C.ar    1  ZINC000263872566   -0.1000
      8 C8        -12.0893   -0.1421   54.1166 C.ar    1  ZINC000263872566   -0.1100
      9 C9        -11.6392    0.5680   52.8658 C.3     1  ZINC000263872566    0.1800
     10 N10       -10.2176    0.9030   52.9793 N.am    1  ZINC000263872566   -0.7400
     11 C11        -9.2830    0.0211   52.5728 C.2     1  ZINC000263872566    0.7100
     12 O12        -9.6197   -1.0525   52.1120 O.2     1  ZINC000263872566   -0.5900
     13 N13        -7.9750    0.3293   52.6772 N.am    1  ZINC000263872566   -0.6300
     14 C14        -6.9447   -0.6193   52.2328 C.3     1  ZINC000263872566    0.1100
     15 C15        -6.0116    0.0920   51.2478 C.3     1  ZINC000263872566   -0.1200
     16 C16        -5.4584    1.3607   51.9006 C.3     1  ZINC000263872566   -0.0800
     17 C17        -4.5135    2.0451   50.9468 C.2     1  ZINC000263872566    0.4700
     18 O18        -4.9369    2.5449   49.9314 O.2     1  ZINC000263872566   -0.5000
     19 O19        -3.2016    2.0995   51.2252 O.3     1  ZINC000263872566   -0.3500
     20 C20        -2.7100    3.3149   51.8494 C.3     1  ZINC000263872566    0.1200
     21 C21        -1.2463    3.5321   51.4604 C.3     1  ZINC000263872566   -0.1800
     22 C22        -3.5458    4.5056   51.3755 C.3     1  ZINC000263872566   -0.1400
     23 C23        -2.8201    3.1878   53.3701 C.3     1  ZINC000263872566   -0.1800
     24 C24        -6.6127    2.3062   52.2411 C.3     1  ZINC000263872566   -0.1300
     25 C25        -7.5526    1.6226   53.2319 C.3     1  ZINC000263872566    0.1300
     26 C26       -11.1938   -0.3630   55.1462 C.ar    1  ZINC000263872566   -0.1000
     27 C27       -11.6074   -1.0113   56.2948 C.ar    1  ZINC000263872566   -0.1100
     28 H28       -14.8377   -0.6645   58.1554 H       1  ZINC000263872566    0.0700
     29 H29       -14.3066   -1.6584   59.5333 H       1  ZINC000263872566    0.0600
     30 H30       -13.2386   -0.3896   58.8871 H       1  ZINC000263872566    0.0700
     31 H31       -15.1459   -2.7857   56.9316 H       1  ZINC000263872566    0.3800
     32 H32       -14.8327   -1.5598   55.4735 H       1  ZINC000263872566    0.1300
     33 H33       -14.0975   -0.3993   53.4301 H       1  ZINC000263872566    0.1300
     34 H34       -11.7918   -0.0819   52.0042 H       1  ZINC000263872566    0.0800
     35 H35       -12.2189    1.4822   52.7385 H       1  ZINC000263872566    0.0800
     36 H36        -9.9489    1.7595   53.3469 H       1  ZINC000263872566    0.4000
     37 H37        -6.3721   -0.9661   53.0930 H       1  ZINC000263872566    0.0800
     38 H38        -7.4180   -1.4684   51.7398 H       1  ZINC000263872566    0.0800
     39 H39        -5.1873   -0.5707   50.9842 H       1  ZINC000263872566    0.0900
     40 H40        -6.5668    0.3581   50.3483 H       1  ZINC000263872566    0.0800
     41 H41        -4.9246    1.0962   52.8134 H       1  ZINC000263872566    0.1100
     42 H42        -1.1680    3.6227   50.3770 H       1  ZINC000263872566    0.0600
     43 H43        -0.8774    4.4445   51.9290 H       1  ZINC000263872566    0.0700
     44 H44        -0.6509    2.6838   51.7981 H       1  ZINC000263872566    0.0800
     45 H45        -4.5885    4.3510   51.6525 H       1  ZINC000263872566    0.0700
     46 H46        -3.1768    5.4180   51.8440 H       1  ZINC000263872566    0.0800
     47 H47        -3.4674    4.5963   50.2920 H       1  ZINC000263872566    0.0700
     48 H48        -2.2247    2.3395   53.7079 H       1  ZINC000263872566    0.0800
     49 H49        -2.4512    4.1001   53.8387 H       1  ZINC000263872566    0.0700
     50 H50        -3.8628    3.0331   53.6473 H       1  ZINC000263872566    0.0600
     51 H51        -6.2161    3.2194   52.6848 H       1  ZINC000263872566    0.0900
     52 H52        -7.1622    2.5514   51.3324 H       1  ZINC000263872566    0.0700
     53 H53        -8.4262    2.2520   53.4007 H       1  ZINC000263872566    0.1000
     54 H54        -7.0316    1.4564   54.1749 H       1  ZINC000263872566    0.0700
     55 H55       -10.1716   -0.0267   55.0543 H       1  ZINC000263872566    0.1300
     56 H56       -10.9078   -1.1838   57.0993 H       1  ZINC000263872566    0.1300
@<TRIPOS>BOND
     1     1     2    1
     2     1    28    1
     3     1    29    1
     4     1    30    1
     5     2     3    1
     6     2     4    1
     7     2     5    1
     8     4    31    1
     9     5    27   ar
    10     5     6   ar
    11     6     7   ar
    12     6    32    1
    13     7     8   ar
    14     7    33    1
    15     8     9    1
    16     8    26   ar
    17     9    10    1
    18     9    34    1
    19     9    35    1
    20    10    11   am
    21    10    36    1
    22    11    12    2
    23    11    13   am
    24    13    25    1
    25    13    14    1
    26    14    15    1
    27    14    37    1
    28    14    38    1
    29    15    16    1
    30    15    39    1
    31    15    40    1
    32    16    17    1
    33    16    24    1
    34    16    41    1
    35    17    18    2
    36    17    19    1
    37    19    20    1
    38    20    21    1
    39    20    22    1
    40    20    23    1
    41    21    42    1
    42    21    43    1
    43    21    44    1
    44    22    45    1
    45    22    46    1
    46    22    47    1
    47    23    48    1
    48    23    49    1
    49    23    50    1
    50    24    25    1
    51    24    51    1
    52    24    52    1
    53    25    53    1
    54    25    54    1
    55    26    27   ar
    56    26    55    1
    57    27    56    1
@<TRIPOS>SUBSTRUCTURE
     1 ZINC000263872566        1 TEMP              0 ****  ****    0 ROOT


##########                                Name:    ZINC000489403631
##########                DOCK_Rotatable_Bonds:                   7
##########                         Heavy_Atoms:                  28
##########                    Molecular_Weight:             381.391
##########                DOCK_Rotatable_Bonds:                   7
##########                       Formal_Charge:          -0.0300003
##########                     HBond_Acceptors:                   9
##########                        HBond_Donors:                   1
##########                         Heavy_Atoms:                  28
##########                          Grid_Score:          -33.204571
##########                     Grid_vdw_energy:          -32.996899
##########                      Grid_es_energy:           -0.207671
##########           Internal_energy_repulsive:           10.158695

@<TRIPOS>MOLECULE
ZINC000489403631
 47 49 1 0 0
SMALL
USER_CHARGES


@<TRIPOS>ATOM
      1 C1        -11.1405   -0.6740   54.3122 C.3     1  ZINC000489403631   -0.1100
      2 C2        -11.4790    0.2690   53.1865 C.ar    1  ZINC000489403631   -0.0800
      3 C3        -12.6506    0.1029   52.4756 C.ar    1  ZINC000489403631   -0.0900
      4 C4        -12.9623    0.9720   51.4382 C.ar    1  ZINC000489403631    0.1200
      5 N5        -14.1514    0.8040   50.7167 N.am    1  ZINC000489403631   -0.6600
      6 C6        -14.2153   -0.1071   49.7257 C.2     1  ZINC000489403631    0.5100
      7 O7        -13.2434   -0.7818   49.4584 O.2     1  ZINC000489403631   -0.4600
      8 C8        -15.4945   -0.2878   48.9496 C.3     1  ZINC000489403631    0.1700
      9 C9        -16.6509    0.3587   49.7149 C.3     1  ZINC000489403631   -0.1700
     10 C10       -15.3567    0.3756   47.5779 C.3     1  ZINC000489403631   -0.1700
     11 N11       -15.7625   -1.7175   48.7759 N.pl3   1  ZINC000489403631   -0.3400
     12 C12       -15.1210   -2.5482   47.9277 C.2     1  ZINC000489403631    0.1500
     13 C13       -15.6623   -3.7804   48.0688 C.2     1  ZINC000489403631   -0.1900
     14 N14       -15.2594   -4.9982   47.3303 N.pl3   1  ZINC000489403631    0.0700
     15 O15       -15.8191   -6.0573   47.5508 O.2     1  ZINC000489403631   -0.1700
     16 O16       -14.3681   -4.9412   46.5020 O.2     1  ZINC000489403631   -0.1600
     17 C17       -16.6692   -3.6999   49.0363 C.2     1  ZINC000489403631    0.1000
     18 N18       -16.7260   -2.4651   49.4652 N.2     1  ZINC000489403631   -0.2200
     19 C19       -12.0953    2.0075   51.1167 C.ar    1  ZINC000489403631   -0.1100
     20 C20       -10.9235    2.1727   51.8286 C.ar    1  ZINC000489403631   -0.1700
     21 C21       -10.6155    1.3077   52.8684 C.ar    1  ZINC000489403631    0.1000
     22 O22        -9.4617    1.4709   53.5689 O.3     1  ZINC000489403631   -0.2500
     23 C23        -8.2871    1.3262   52.9045 C.ar    1  ZINC000489403631    0.1400
     24 C24        -7.9524    0.1164   52.3005 C.ar    1  ZINC000489403631   -0.2000
     25 C25        -6.7490    0.0097   51.6345 C.ar    1  ZINC000489403631    0.1200
     26 N26        -5.9206    1.0347   51.5659 N.ar    1  ZINC000489403631   -0.4900
     27 C27        -6.2020    2.1965   52.1250 C.ar    1  ZINC000489403631    0.1200
     28 C28        -7.3881    2.3854   52.8042 C.ar    1  ZINC000489403631   -0.1800
     29 H29       -11.5522   -0.2887   55.2450 H       1  ZINC000489403631    0.0700
     30 H30       -11.5672   -1.6553   54.1047 H       1  ZINC000489403631    0.0700
     31 H31       -10.0576   -0.7599   54.4011 H       1  ZINC000489403631    0.0700
     32 H32       -13.3245   -0.7032   52.7259 H       1  ZINC000489403631    0.1500
     33 H33       -14.9286    1.3436   50.9305 H       1  ZINC000489403631    0.4100
     34 H34       -16.4515    1.4225   49.8442 H       1  ZINC000489403631    0.1000
     35 H35       -17.5761    0.2281   49.1536 H       1  ZINC000489403631    0.0900
     36 H36       -16.7491   -0.1140   50.6922 H       1  ZINC000489403631    0.0800
     37 H37       -14.5328   -0.0848   47.0326 H       1  ZINC000489403631    0.0800
     38 H38       -16.2819    0.2450   47.0165 H       1  ZINC000489403631    0.0900
     39 H39       -15.1573    1.4394   47.7071 H       1  ZINC000489403631    0.0900
     40 H40       -14.3194   -2.2780   47.2563 H       1  ZINC000489403631    0.2000
     41 H41       -17.2891   -4.5169   49.3746 H       1  ZINC000489403631    0.2100
     42 H42       -12.3370    2.6835   50.3098 H       1  ZINC000489403631    0.1300
     43 H43       -10.2490    2.9783   51.5786 H       1  ZINC000489403631    0.1300
     44 H44        -8.6256   -0.7264   52.3532 H       1  ZINC000489403631    0.1400
     45 H45        -6.4812   -0.9247   51.1635 H       1  ZINC000489403631    0.1600
     46 H46        -5.4969    3.0108   52.0465 H       1  ZINC000489403631    0.1700
     47 H47        -7.6124    3.3388   53.2593 H       1  ZINC000489403631    0.1500
@<TRIPOS>BOND
     1     1     2    1
     2     1    29    1
     3     1    30    1
     4     1    31    1
     5     2    21   ar
     6     2     3   ar
     7     3     4   ar
     8     3    32    1
     9     4     5    1
    10     4    19   ar
    11     5     6   am
    12     5    33    1
    13     6     7    2
    14     6     8    1
    15     8     9    1
    16     8    10    1
    17     8    11    1
    18     9    34    1
    19     9    35    1
    20     9    36    1
    21    10    37    1
    22    10    38    1
    23    10    39    1
    24    11    18    1
    25    11    12    1
    26    12    13    2
    27    12    40    1
    28    13    14    1
    29    13    17    1
    30    14    15    2
    31    14    16    2
    32    17    18    2
    33    17    41    1
    34    19    20   ar
    35    19    42    1
    36    20    21   ar
    37    20    43    1
    38    21    22    1
    39    22    23    1
    40    23    28   ar
    41    23    24   ar
    42    24    25   ar
    43    24    44    1
    44    25    26   ar
    45    25    45    1
    46    26    27   ar
    47    27    28   ar
    48    27    46    1
    49    28    47    1
@<TRIPOS>SUBSTRUCTURE
     1 ZINC000489403631        1 TEMP              0 ****  ****    0 ROOT


##########                                Name:    ZINC000821442454
##########                DOCK_Rotatable_Bonds:                   6
##########                         Heavy_Atoms:                  26
##########                    Molecular_Weight:             398.873
##########                DOCK_Rotatable_Bonds:                   6
##########                       Formal_Charge:          -0.0399996
##########                     HBond_Acceptors:                  11
##########                        HBond_Donors:                   2
##########                         Heavy_Atoms:                  26
##########                          Grid_Score:          -33.191036
##########                     Grid_vdw_energy:          -33.438992
##########                      Grid_es_energy:            0.247954
##########           Internal_energy_repulsive:           10.743360

@<TRIPOS>MOLECULE
ZINC000821442454
 45 47 1 0 0
SMALL
USER_CHARGES


@<TRIPOS>ATOM
      1 C1        -12.1432    0.1527   52.3048 C.3     1  ZINC000821442454   -0.1500
      2 C2        -10.8953    0.9833   52.6106 C.3     1  ZINC000821442454   -0.6300
      3 S3         -9.6486   -0.0683   53.4048 S.o2    1  ZINC000821442454    2.6000
      4 O4        -10.0697   -0.4424   54.7093 O.2     1  ZINC000821442454   -0.9500
      5 O5         -9.1555   -1.0359   52.4883 O.2     1  ZINC000821442454   -0.9500
      6 N6         -8.3617    0.9410   53.6648 N.am    1  ZINC000821442454   -1.0000
      7 C7         -8.5066    2.1375   54.5051 C.3     1  ZINC000821442454    0.1100
      8 C8         -8.0266    3.3576   53.7126 C.3     1  ZINC000821442454   -0.1300
      9 C9         -6.6014    3.1085   53.2140 C.3     1  ZINC000821442454   -0.1100
     10 C10        -6.5895    1.8933   52.2839 C.3     1  ZINC000821442454   -0.1200
     11 H11        -7.2633    2.0702   51.4455 H       1  ZINC000821442454    0.1100
     12 C12        -5.1918    1.6687   51.7672 C.2     1  ZINC000821442454    0.5300
     13 O13        -4.8591    0.5701   51.3757 O.2     1  ZINC000821442454   -0.5100
     14 N14        -4.3113    2.6888   51.7403 N.am    1  ZINC000821442454   -0.6700
     15 C15        -3.0140    2.4805   51.2608 C.ar    1  ZINC000821442454    0.1800
     16 C16        -2.8189    2.0249   49.9631 C.ar    1  ZINC000821442454   -0.1200
     17 C17        -1.5406    1.8194   49.4879 C.ar    1  ZINC000821442454   -0.0500
     18 C18        -0.4438    2.0687   50.3102 C.ar    1  ZINC000821442454   -0.0300
     19 C19         0.9325    1.8483   49.8002 C.2     1  ZINC000821442454    0.2200
     20 N20         1.2887    1.6809   48.5420 N.2     1  ZINC000821442454   -0.2900
     21 N21         2.5670    1.5201   48.5121 N.pl3   1  ZINC000821442454   -0.2200
     22 N22         3.0320    1.5805   49.7110 N.2     1  ZINC000821442454   -0.0400
     23 N23         2.0562    1.7867   50.5288 N.2     1  ZINC000821442454   -0.2700
     24 C24        -0.6406    2.5258   51.6121 C.ar    1  ZINC000821442454   -0.0500
     25 C25        -1.9207    2.7352   52.0821 C.ar    1  ZINC000821442454   -0.0800
     26 Cl26       -2.1673    3.3045   53.7034 Cl      1  ZINC000821442454   -0.0500
     27 C27        -7.0518    0.6536   53.0647 C.3     1  ZINC000821442454    0.1400
     28 H28       -11.8795   -0.6665   51.6359 H       1  ZINC000821442454    0.0700
     29 H29       -12.5469   -0.2518   53.2330 H       1  ZINC000821442454    0.0700
     30 H30       -12.8923    0.7846   51.8276 H       1  ZINC000821442454    0.0800
     31 H31       -10.4916    1.3878   51.6824 H       1  ZINC000821442454    0.1300
     32 H32       -11.1591    1.8025   53.2796 H       1  ZINC000821442454    0.1300
     33 H33        -9.5538    2.2679   54.7779 H       1  ZINC000821442454    0.1000
     34 H34        -7.9033    2.0266   55.4061 H       1  ZINC000821442454    0.0700
     35 H35        -8.6868    3.5207   52.8607 H       1  ZINC000821442454    0.0700
     36 H36        -8.0383    4.2371   54.3564 H       1  ZINC000821442454    0.0800
     37 H37        -6.2483    3.9850   52.6706 H       1  ZINC000821442454    0.0700
     38 H38        -5.9465    2.9209   54.0649 H       1  ZINC000821442454    0.0800
     39 H39        -4.5774    3.5674   52.0535 H       1  ZINC000821442454    0.4200
     40 H40        -3.6691    1.8313   49.3258 H       1  ZINC000821442454    0.1600
     41 H41        -1.3898    1.4648   48.4790 H       1  ZINC000821442454    0.1500
     42 H42         3.0958    1.3759   47.7119 H       1  ZINC000821442454    0.4800
     43 H43         0.2081    2.7196   52.2511 H       1  ZINC000821442454    0.1500
     44 H44        -6.3281    0.4235   53.8467 H       1  ZINC000821442454    0.0800
     45 H45        -7.1405   -0.1941   52.3852 H       1  ZINC000821442454    0.1000
@<TRIPOS>BOND
     1     1     2    1
     2     1    28    1
     3     1    29    1
     4     1    30    1
     5     2     3    1
     6     2    31    1
     7     2    32    1
     8     3     4    2
     9     3     5    2
    10     3     6   am
    11     6    27    1
    12     6     7    1
    13     7     8    1
    14     7    33    1
    15     7    34    1
    16     8     9    1
    17     8    35    1
    18     8    36    1
    19     9    10    1
    20     9    37    1
    21     9    38    1
    22    10    11    1
    23    10    12    1
    24    10    27    1
    25    12    13    2
    26    12    14   am
    27    14    15    1
    28    14    39    1
    29    15    25   ar
    30    15    16   ar
    31    16    17   ar
    32    16    40    1
    33    17    18   ar
    34    17    41    1
    35    18    19    1
    36    18    24   ar
    37    19    23    1
    38    19    20    2
    39    20    21    1
    40    21    22    1
    41    21    42    1
    42    22    23    2
    43    24    25   ar
    44    24    43    1
    45    25    26    1
    46    27    44    1
    47    27    45    1
@<TRIPOS>SUBSTRUCTURE
     1 ZINC000821442454        1 TEMP              0 ****  ****    0 ROOT


##########                                Name:    ZINC001109082135
##########                DOCK_Rotatable_Bonds:                   9
##########                         Heavy_Atoms:                  27
##########                    Molecular_Weight:             373.455
##########                DOCK_Rotatable_Bonds:                   9
##########                       Formal_Charge:          -0.0100003
##########                     HBond_Acceptors:                   8
##########                        HBond_Donors:                   3
##########                         Heavy_Atoms:                  27
##########                          Grid_Score:          -33.189697
##########                     Grid_vdw_energy:          -31.981684
##########                      Grid_es_energy:           -1.208014
##########           Internal_energy_repulsive:           16.480301

@<TRIPOS>MOLECULE
ZINC001109082135
 54 57 1 0 0
SMALL
USER_CHARGES


@<TRIPOS>ATOM
      1 C1        -14.2705   -0.0771   52.5062 C.3     1  ZINC001109082135   -0.1400
      2 C2        -12.8838   -0.0596   51.8600 C.3     1  ZINC001109082135   -0.1400
      3 C3        -11.8288   -0.0261   52.9357 C.2     1  ZINC001109082135    0.5100
      4 O4        -12.0893   -0.4194   54.0530 O.2     1  ZINC001109082135   -0.5400
      5 N5        -10.5958    0.4408   52.6561 N.am    1  ZINC001109082135   -0.7200
      6 C6         -9.5707    0.4751   53.7021 C.3     1  ZINC001109082135    0.1000
      7 C7         -8.2047    0.4106   53.0691 C.2     1  ZINC001109082135    0.5100
      8 O8         -7.7764   -0.6467   52.6572 O.2     1  ZINC001109082135   -0.5300
      9 N9         -7.4588    1.5280   52.9608 N.am    1  ZINC001109082135   -0.7100
     10 C10        -6.1315    1.4656   52.3438 C.3     1  ZINC001109082135    0.1100
     11 H11        -5.6369    0.5272   52.5944 H       1  ZINC001109082135    0.0900
     12 C12        -6.2359    1.6337   50.8081 C.3     1  ZINC001109082135   -0.1600
     13 C13        -5.4169    2.9296   50.5270 C.3     1  ZINC001109082135    0.0600
     14 H14        -5.0559    3.0457   49.5050 H       1  ZINC001109082135    0.1300
     15 C15        -6.3045    4.0930   51.0634 C.3     1  ZINC001109082135   -0.1200
     16 C16        -6.2165    3.9358   52.6013 C.3     1  ZINC001109082135   -0.1100
     17 C17        -5.2621    2.6801   52.7887 C.3     1  ZINC001109082135    0.0400
     18 H18        -4.7755    2.5997   53.7608 H       1  ZINC001109082135    0.1200
     19 N19        -4.3562    2.8369   51.5926 N.3     1  ZINC001109082135   -0.4800
     20 C20        -3.5119    1.6484   51.4123 C.3     1  ZINC001109082135    0.0800
     21 C21        -2.0737    2.0724   51.2600 C.2     1  ZINC001109082135    0.2000
     22 C22        -1.3086    1.5438   50.2649 C.2     1  ZINC001109082135   -0.2900
     23 C23         0.0330    1.9625   50.1502 C.2     1  ZINC001109082135    0.5200
     24 O24         0.7526    1.5145   49.2730 O.2     1  ZINC001109082135   -0.5400
     25 N25         0.5040    2.8704   51.0316 N.am    1  ZINC001109082135   -0.6300
     26 C26        -0.3051    3.3552   51.9941 C.2     1  ZINC001109082135    0.4300
     27 C27         0.2361    4.3680   52.9700 C.3     1  ZINC001109082135   -0.1400
     28 C28         0.3688    5.8136   52.4870 C.3     1  ZINC001109082135   -0.1400
     29 C29        -0.7284    5.4381   53.4850 C.3     1  ZINC001109082135   -0.1400
     30 N30        -1.5494    2.9709   52.0970 N.2     1  ZINC001109082135   -0.5300
     31 H31       -14.3995    0.8185   53.1139 H       1  ZINC001109082135    0.0600
     32 H32       -15.0335   -0.1014   51.7282 H       1  ZINC001109082135    0.0600
     33 H33       -14.3664   -0.9609   53.1368 H       1  ZINC001109082135    0.0600
     34 H34       -12.7547   -0.9554   51.2524 H       1  ZINC001109082135    0.1000
     35 H35       -12.7879    0.8242   51.2294 H       1  ZINC001109082135    0.1000
     36 H36       -10.3872    0.7542   51.7621 H       1  ZINC001109082135    0.4100
     37 H37        -9.6639    1.3996   54.2720 H       1  ZINC001109082135    0.1000
     38 H38        -9.7030   -0.3773   54.3685 H       1  ZINC001109082135    0.1000
     39 H39        -7.8009    2.3733   53.2913 H       1  ZINC001109082135    0.4000
     40 H40        -5.7905    0.7800   50.2975 H       1  ZINC001109082135    0.0800
     41 H41        -7.2752    1.7634   50.5060 H       1  ZINC001109082135    0.0800
     42 H42        -5.9021    5.0572   50.7527 H       1  ZINC001109082135    0.0700
     43 H43        -7.3339    3.9781   50.7242 H       1  ZINC001109082135    0.0700
     44 H44        -5.7708    4.8221   53.0528 H       1  ZINC001109082135    0.0700
     45 H45        -7.2025    3.7430   53.0243 H       1  ZINC001109082135    0.0700
     46 H46        -3.6088    0.9985   52.2820 H       1  ZINC001109082135    0.1000
     47 H47        -3.8284    1.1100   50.5191 H       1  ZINC001109082135    0.0700
     48 H48        -1.7207    0.8189   49.5784 H       1  ZINC001109082135    0.1600
     49 H49         1.4237    3.1731   50.9725 H       1  ZINC001109082135    0.4200
     50 H50         0.9920    3.9967   53.6620 H       1  ZINC001109082135    0.1300
     51 H51         1.2124    6.3938   52.8611 H       1  ZINC001109082135    0.1100
     52 H52         0.0648    6.0321   51.4634 H       1  ZINC001109082135    0.1100
     53 H53        -1.7544    5.4098   53.1180 H       1  ZINC001109082135    0.1100
     54 H54        -0.6067    5.7714   54.5157 H       1  ZINC001109082135    0.1100
@<TRIPOS>BOND
     1     1     2    1
     2     1    31    1
     3     1    32    1
     4     1    33    1
     5     2     3    1
     6     2    34    1
     7     2    35    1
     8     3     4    2
     9     3     5   am
    10     5     6    1
    11     5    36    1
    12     6     7    1
    13     6    37    1
    14     6    38    1
    15     7     8    2
    16     7     9   am
    17     9    10    1
    18     9    39    1
    19    10    11    1
    20    10    17    1
    21    10    12    1
    22    12    13    1
    23    12    40    1
    24    12    41    1
    25    13    14    1
    26    13    19    1
    27    13    15    1
    28    15    16    1
    29    15    42    1
    30    15    43    1
    31    16    17    1
    32    16    44    1
    33    16    45    1
    34    17    18    1
    35    17    19    1
    36    19    20    1
    37    20    21    1
    38    20    46    1
    39    20    47    1
    40    21    30    1
    41    21    22    2
    42    22    23    1
    43    22    48    1
    44    23    24    2
    45    23    25   am
    46    25    26    1
    47    25    49    1
    48    26    27    1
    49    26    30    2
    50    27    29    1
    51    27    28    1
    52    27    50    1
    53    28    29    1
    54    28    51    1
    55    28    52    1
    56    29    53    1
    57    29    54    1
@<TRIPOS>SUBSTRUCTURE
     1 ZINC001109082135        1 TEMP              0 ****  ****    0 ROOT


##########                                Name:    ZINC001070580102
##########                DOCK_Rotatable_Bonds:                   8
##########                         Heavy_Atoms:                  25
##########                    Molecular_Weight:              349.39
##########                DOCK_Rotatable_Bonds:                   8
##########                       Formal_Charge:          -0.0100003
##########                     HBond_Acceptors:                   9
##########                        HBond_Donors:                   3
##########                         Heavy_Atoms:                  25
##########                          Grid_Score:          -33.189003
##########                     Grid_vdw_energy:          -32.926186
##########                      Grid_es_energy:           -0.262818
##########           Internal_energy_repulsive:           12.273725

@<TRIPOS>MOLECULE
ZINC001070580102
 48 50 1 0 0
SMALL
USER_CHARGES


@<TRIPOS>ATOM
      1 C1        -10.4860    2.5328   56.9417 C.3     1  ZINC001070580102   -0.0800
      2 C2        -10.3237    1.6149   55.7576 C.2     1  ZINC001070580102   -0.0100
      3 C3         -9.1938    1.4450   55.0541 C.2     1  ZINC001070580102   -0.1900
      4 C4         -9.5136    0.4637   54.0069 C.2     1  ZINC001070580102   -0.2500
      5 C5         -8.6059   -0.0621   52.9716 C.2     1  ZINC001070580102    0.6000
      6 O6         -8.9843   -0.9401   52.2202 O.2     1  ZINC001070580102   -0.5300
      7 N7         -7.3565    0.4304   52.8577 N.am    1  ZINC001070580102   -0.7200
      8 C8         -6.4537   -0.0936   51.8298 C.3     1  ZINC001070580102    0.2000
      9 C9         -5.6209    1.0317   51.2716 C.2     1  ZINC001070580102    0.2600
     10 N10        -4.3336    1.1922   51.4415 N.2     1  ZINC001070580102   -0.5100
     11 C11        -3.9279    2.2923   50.8086 C.2     1  ZINC001070580102    0.2300
     12 C12        -2.5131    2.8097   50.7714 C.3     1  ZINC001070580102    0.1400
     13 H13        -2.4872    3.7609   50.2397 H       1  ZINC001070580102    0.0800
     14 C14        -1.6173    1.7976   50.0524 C.3     1  ZINC001070580102    0.0800
     15 O15        -0.2638    2.2581   50.0859 O.3     1  ZINC001070580102   -0.3800
     16 C16         0.2452    2.4541   51.4080 C.3     1  ZINC001070580102    0.0600
     17 C17        -0.6317    3.4729   52.1408 C.3     1  ZINC001070580102    0.0200
     18 N18        -2.0243    3.0015   52.1446 N.3     1  ZINC001070580102   -0.5200
     19 C19        -2.8907    3.9253   52.8889 C.3     1  ZINC001070580102    0.0600
     20 C20        -2.7034    3.7017   54.3908 C.3     1  ZINC001070580102    0.0800
     21 O21        -3.9229    4.0018   55.0727 O.3     1  ZINC001070580102   -0.5700
     22 N22        -4.9561    2.8494   50.2245 N.2     1  ZINC001070580102   -0.2700
     23 N23        -6.0701    2.0423   50.5074 N.pl3   1  ZINC001070580102   -0.4700
     24 C24       -10.8257    0.1411   54.1943 C.2     1  ZINC001070580102    0.0900
     25 C25       -11.6209   -0.8339   53.3648 C.3     1  ZINC001070580102   -0.0900
     26 O26       -11.2847    0.8326   55.2419 O.3     1  ZINC001070580102   -0.1700
     27 H27       -11.5070    2.4647   57.3170 H       1  ZINC001070580102    0.0800
     28 H28        -9.7898    2.2390   57.7273 H       1  ZINC001070580102    0.0900
     29 H29       -10.2784    3.5587   56.6373 H       1  ZINC001070580102    0.0900
     30 H30        -8.2437    1.9301   55.2224 H       1  ZINC001070580102    0.1500
     31 H31        -7.0550    1.1315   53.4563 H       1  ZINC001070580102    0.4000
     32 H32        -5.7993   -0.8460   52.2701 H       1  ZINC001070580102    0.1000
     33 H33        -7.0385   -0.5449   51.0283 H       1  ZINC001070580102    0.1100
     34 H34        -1.6854    0.8315   50.5525 H       1  ZINC001070580102    0.0700
     35 H35        -1.9416    1.6957   49.0167 H       1  ZINC001070580102    0.1000
     36 H36         0.2311    1.5071   51.9474 H       1  ZINC001070580102    0.0600
     37 H37         1.2679    2.8271   51.3528 H       1  ZINC001070580102    0.1000
     38 H38        -0.2818    3.5827   53.1672 H       1  ZINC001070580102    0.1200
     39 H39        -0.5752    4.4349   51.6313 H       1  ZINC001070580102    0.0400
     40 H40        -2.6262    4.9526   52.6388 H       1  ZINC001070580102    0.0500
     41 H41        -3.9314    3.7425   52.6213 H       1  ZINC001070580102    0.0800
     42 H42        -2.4322    2.6617   54.5723 H       1  ZINC001070580102    0.0500
     43 H43        -1.9112    4.3534   54.7592 H       1  ZINC001070580102    0.0600
     44 H44        -3.8413    4.0173   56.0362 H       1  ZINC001070580102    0.3800
     45 H45        -6.9833    2.1886   50.2149 H       1  ZINC001070580102    0.4400
     46 H46       -11.5351   -1.8316   53.7952 H       1  ZINC001070580102    0.0900
     47 H47       -12.6682   -0.5319   53.3537 H       1  ZINC001070580102    0.0800
     48 H48       -11.2347   -0.8434   52.3456 H       1  ZINC001070580102    0.1100
@<TRIPOS>BOND
     1     1     2    1
     2     1    27    1
     3     1    28    1
     4     1    29    1
     5     2    26    1
     6     2     3    2
     7     3     4    1
     8     3    30    1
     9     4     5    1
    10     4    24    2
    11     5     6    2
    12     5     7   am
    13     7     8    1
    14     7    31    1
    15     8     9    1
    16     8    32    1
    17     8    33    1
    18     9    23    1
    19     9    10    2
    20    10    11    1
    21    11    12    1
    22    11    22    2
    23    12    13    1
    24    12    18    1
    25    12    14    1
    26    14    15    1
    27    14    34    1
    28    14    35    1
    29    15    16    1
    30    16    17    1
    31    16    36    1
    32    16    37    1
    33    17    18    1
    34    17    38    1
    35    17    39    1
    36    18    19    1
    37    19    20    1
    38    19    40    1
    39    19    41    1
    40    20    21    1
    41    20    42    1
    42    20    43    1
    43    21    44    1
    44    22    23    1
    45    23    45    1
    46    24    25    1
    47    24    26    1
    48    25    46    1
    49    25    47    1
    50    25    48    1
@<TRIPOS>SUBSTRUCTURE
     1 ZINC001070580102        1 TEMP              0 ****  ****    0 ROOT


##########                                Name:    ZINC001579482641
##########                DOCK_Rotatable_Bonds:                   5
##########                         Heavy_Atoms:                  26
##########                    Molecular_Weight:             355.359
##########                DOCK_Rotatable_Bonds:                   5
##########                       Formal_Charge:                0.05
##########                     HBond_Acceptors:                  11
##########                        HBond_Donors:                   1
##########                         Heavy_Atoms:                  26
##########                          Grid_Score:          -33.187607
##########                     Grid_vdw_energy:          -31.316822
##########                      Grid_es_energy:           -1.870784
##########           Internal_energy_repulsive:           14.278200

@<TRIPOS>MOLECULE
ZINC001579482641
 43 46 1 0 0
SMALL
USER_CHARGES


@<TRIPOS>ATOM
      1 C1          0.9849    3.9367   51.6462 C.3     1  ZINC001579482641    0.0300
      2 O2         -0.4489    4.1621   51.6034 O.3     1  ZINC001579482641   -0.3300
      3 C3         -1.2282    3.0951   51.3402 C.2     1  ZINC001579482641    0.5300
      4 O4         -0.7273    2.0569   50.9569 O.2     1  ZINC001579482641   -0.4900
      5 C5         -2.6919    3.1877   51.5178 C.ar    1  ZINC001579482641    0.0900
      6 C6         -3.3058    4.4413   51.5365 C.ar    1  ZINC001579482641   -0.0800
      7 C7         -4.6763    4.5226   51.7030 C.ar    1  ZINC001579482641   -0.1200
      8 C8         -5.4000    3.3413   51.8471 C.ar    1  ZINC001579482641    0.1100
      9 N9         -6.7775    3.3764   52.0162 N.3     1  ZINC001579482641   -0.4600
     10 C10        -7.1444    4.1305   53.2420 C.3     1  ZINC001579482641    0.0400
     11 C11        -8.6244    4.5147   52.9923 C.3     1  ZINC001579482641   -0.1100
     12 C12        -8.6503    4.8249   51.4780 C.3     1  ZINC001579482641   -0.0100
     13 H13        -8.5582    5.8979   51.3100 H       1  ZINC001579482641    0.0900
     14 C14        -9.9231    4.3067   50.8597 C.2     1  ZINC001579482641    0.1800
     15 N15       -10.9114    3.7327   51.4900 N.2     1  ZINC001579482641   -0.2600
     16 N16       -11.8347    3.4179   50.6520 N.2     1  ZINC001579482641   -0.2900
     17 C17       -11.4773    3.7768   49.4490 C.2     1  ZINC001579482641    0.1500
     18 N18       -10.2562    4.3556   49.5472 N.pl3   1  ZINC001579482641   -0.4800
     19 C19        -9.4549    4.9134   48.4549 C.3     1  ZINC001579482641    0.0700
     20 C20        -7.4311    4.0862   50.8953 C.3     1  ZINC001579482641    0.0600
     21 C21        -4.7170    2.1134   51.8186 C.ar    1  ZINC001579482641    0.2300
     22 C22        -5.4744    0.8469   51.9708 C.2     1  ZINC001579482641    0.2100
     23 N23        -6.4020    0.5872   52.8711 N.2     1  ZINC001579482641   -0.2600
     24 N24        -6.8177   -0.6164   52.6730 N.pl3   1  ZINC001579482641   -0.2300
     25 N25        -6.1834   -1.1277   51.6763 N.2     1  ZINC001579482641   -0.0500
     26 N26        -5.3529   -0.2547   51.2160 N.2     1  ZINC001579482641   -0.2000
     27 N27        -3.4074    2.0771   51.6521 N.ar    1  ZINC001579482641   -0.4000
     28 H28         1.3223    3.5585   50.6812 H       1  ZINC001579482641    0.0700
     29 H29         1.4938    4.8751   51.8668 H       1  ZINC001579482641    0.1100
     30 H30         1.2150    3.2073   52.4229 H       1  ZINC001579482641    0.0700
     31 H31        -2.7161    5.3390   51.4225 H       1  ZINC001579482641    0.1600
     32 H32        -5.1744    5.4808   51.7213 H       1  ZINC001579482641    0.1600
     33 H33        -7.0550    3.4971   54.1247 H       1  ZINC001579482641    0.1000
     34 H34        -6.5270    5.0231   53.3438 H       1  ZINC001579482641    0.0600
     35 H35        -9.2845    3.6795   53.2263 H       1  ZINC001579482641    0.1000
     36 H36        -8.8968    5.3970   53.5715 H       1  ZINC001579482641    0.0800
     37 H37       -12.0505    3.6411   48.5437 H       1  ZINC001579482641    0.2200
     38 H38        -9.7018    5.9671   48.3246 H       1  ZINC001579482641    0.0800
     39 H39        -8.3960    4.8153   48.6942 H       1  ZINC001579482641    0.0900
     40 H40        -9.6707    4.3729   47.5333 H       1  ZINC001579482641    0.0900
     41 H41        -6.7381    4.8032   50.4552 H       1  ZINC001579482641    0.0600
     42 H42        -7.7567    3.3695   50.1414 H       1  ZINC001579482641    0.1000
     43 H43        -7.5012   -1.0667   53.1936 H       1  ZINC001579482641    0.4800
@<TRIPOS>BOND
     1     1     2    1
     2     1    28    1
     3     1    29    1
     4     1    30    1
     5     2     3    1
     6     3     4    2
     7     3     5    1
     8     5    27   ar
     9     5     6   ar
    10     6     7   ar
    11     6    31    1
    12     7     8   ar
    13     7    32    1
    14     8     9    1
    15     8    21   ar
    16     9    20    1
    17     9    10    1
    18    10    11    1
    19    10    33    1
    20    10    34    1
    21    11    12    1
    22    11    35    1
    23    11    36    1
    24    12    13    1
    25    12    14    1
    26    12    20    1
    27    14    18    1
    28    14    15    2
    29    15    16    1
    30    16    17    2
    31    17    18    1
    32    17    37    1
    33    18    19    1
    34    19    38    1
    35    19    39    1
    36    19    40    1
    37    20    41    1
    38    20    42    1
    39    21    22    1
    40    21    27   ar
    41    22    26    1
    42    22    23    2
    43    23    24    1
    44    24    25    1
    45    24    43    1
    46    25    26    2
@<TRIPOS>SUBSTRUCTURE
     1 ZINC001579482641        1 TEMP              0 ****  ****    0 ROOT


##########                                Name:    ZINC000000992968
##########                DOCK_Rotatable_Bonds:                   8
##########                         Heavy_Atoms:                  27
##########                    Molecular_Weight:             384.772
##########                DOCK_Rotatable_Bonds:                   8
##########                       Formal_Charge:           0.0199999
##########                     HBond_Acceptors:                   7
##########                        HBond_Donors:                   0
##########                         Heavy_Atoms:                  27
##########                          Grid_Score:          -33.122131
##########                     Grid_vdw_energy:          -32.881351
##########                      Grid_es_energy:           -0.240781
##########           Internal_energy_repulsive:            8.923426

@<TRIPOS>MOLECULE
ZINC000000992968
 40 42 1 0 0
SMALL
USER_CHARGES


@<TRIPOS>ATOM
      1 O1        -13.4866   -0.9388   55.1778 O.2     1  ZINC000000992968   -0.4600
      2 C2        -12.3902   -0.5448   55.5272 C.2     1  ZINC000000992968    0.5600
      3 O3        -11.8488    0.5464   54.9466 O.3     1  ZINC000000992968   -0.2900
      4 C4        -10.6960    0.3905   54.2480 C.ar    1  ZINC000000992968    0.1200
      5 C5         -9.6379    1.2695   54.4519 C.ar    1  ZINC000000992968   -0.1300
      6 C6         -8.4668    1.1160   53.7457 C.ar    1  ZINC000000992968   -0.0400
      7 C7         -8.3415    0.0722   52.8208 C.ar    1  ZINC000000992968   -0.1600
      8 C8         -7.0936   -0.0967   52.0646 C.2     1  ZINC000000992968    0.4000
      9 O9         -7.0223   -0.9356   51.1915 O.2     1  ZINC000000992968   -0.4200
     10 C10        -5.9019    0.7726   52.3734 C.3     1  ZINC000000992968    0.0200
     11 O11        -6.0165    2.0260   51.6496 O.3     1  ZINC000000992968   -0.3300
     12 C12        -5.0359    2.3181   50.7731 C.2     1  ZINC000000992968    0.5100
     13 O13        -5.2642    2.3054   49.5800 O.2     1  ZINC000000992968   -0.5000
     14 C14        -3.6839    2.6537   51.2627 C.ar    1  ZINC000000992968   -0.1300
     15 C15        -2.5678    2.4181   50.4568 C.ar    1  ZINC000000992968   -0.0500
     16 C16        -1.3079    2.7341   50.9195 C.ar    1  ZINC000000992968   -0.1200
     17 C17        -1.1479    3.2838   52.1809 C.ar    1  ZINC000000992968    0.0000
     18 Cl18        0.4416    3.6783   52.7565 Cl      1  ZINC000000992968   -0.0500
     19 C19        -2.2510    3.5202   52.9847 C.ar    1  ZINC000000992968   -0.1200
     20 C20        -3.5165    3.2135   52.5313 C.ar    1  ZINC000000992968   -0.0400
     21 C21        -9.4098   -0.8104   52.6196 C.ar    1  ZINC000000992968   -0.0600
     22 C22       -10.5747   -0.6512   53.3348 C.ar    1  ZINC000000992968   -0.1200
     23 C23       -11.6603   -1.2511   56.5822 C.2     1  ZINC000000992968   -0.0700
     24 C24       -10.5527   -0.7922   57.2381 C.2     1  ZINC000000992968   -0.0900
     25 C25       -10.1892   -1.7857   58.1597 C.2     1  ZINC000000992968   -0.2300
     26 C26       -11.0789   -2.7950   58.0285 C.2     1  ZINC000000992968    0.0200
     27 O27       -11.9668   -2.4667   57.0814 O.3     1  ZINC000000992968   -0.1500
     28 H28        -9.7355    2.0743   55.1655 H       1  ZINC000000992968    0.1400
     29 H29        -7.6458    1.7996   53.9043 H       1  ZINC000000992968    0.1500
     30 H30        -5.8663    0.9733   53.4441 H       1  ZINC000000992968    0.1100
     31 H31        -4.9895    0.2596   52.0694 H       1  ZINC000000992968    0.1100
     32 H32        -2.6913    1.9890   49.4734 H       1  ZINC000000992968    0.1500
     33 H33        -0.4441    2.5524   50.2973 H       1  ZINC000000992968    0.1500
     34 H34        -2.1198    3.9493   53.9671 H       1  ZINC000000992968    0.1500
     35 H35        -4.3757    3.3986   53.1588 H       1  ZINC000000992968    0.1500
     36 H36        -9.3183   -1.6170   51.9071 H       1  ZINC000000992968    0.1400
     37 H37       -11.3991   -1.3316   53.1806 H       1  ZINC000000992968    0.1400
     38 H38       -10.0538    0.1522   57.0780 H       1  ZINC000000992968    0.1700
     39 H39        -9.3554   -1.7507   58.8451 H       1  ZINC000000992968    0.1700
     40 H40       -11.0762   -3.7133   58.5969 H       1  ZINC000000992968    0.2200
@<TRIPOS>BOND
     1     1     2    2
     2     2     3    1
     3     2    23    1
     4     3     4    1
     5     4    22   ar
     6     4     5   ar
     7     5     6   ar
     8     5    28    1
     9     6     7   ar
    10     6    29    1
    11     7     8    1
    12     7    21   ar
    13     8     9    2
    14     8    10    1
    15    10    11    1
    16    10    30    1
    17    10    31    1
    18    11    12    1
    19    12    13    2
    20    12    14    1
    21    14    20   ar
    22    14    15   ar
    23    15    16   ar
    24    15    32    1
    25    16    17   ar
    26    16    33    1
    27    17    18    1
    28    17    19   ar
    29    19    20   ar
    30    19    34    1
    31    20    35    1
    32    21    22   ar
    33    21    36    1
    34    22    37    1
    35    23    27    1
    36    23    24    2
    37    24    25    1
    38    24    38    1
    39    25    26    2
    40    25    39    1
    41    26    27    1
    42    26    40    1
@<TRIPOS>SUBSTRUCTURE
     1 ZINC000000992968        1 TEMP              0 ****  ****    0 ROOT


##########                                Name:    ZINC000550952205
##########                DOCK_Rotatable_Bonds:                   7
##########                         Heavy_Atoms:                  28
##########                    Molecular_Weight:             407.484
##########                DOCK_Rotatable_Bonds:                   7
##########                       Formal_Charge:        -2.68221e-07
##########                     HBond_Acceptors:                   8
##########                        HBond_Donors:                   2
##########                         Heavy_Atoms:                  28
##########                          Grid_Score:          -33.107990
##########                     Grid_vdw_energy:          -32.051373
##########                      Grid_es_energy:           -1.056617
##########           Internal_energy_repulsive:            6.149714

@<TRIPOS>MOLECULE
ZINC000550952205
 51 54 1 0 0
SMALL
USER_CHARGES


@<TRIPOS>ATOM
      1 O1         -1.5742    1.5008   48.9438 O.2     1  ZINC000550952205   -0.5100
      2 C2         -1.9109    1.8590   50.0533 C.2     1  ZINC000550952205    0.5100
      3 N3         -0.9769    2.1847   50.9687 N.am    1  ZINC000550952205   -0.7000
      4 C4          0.4451    2.1007   50.6260 C.3     1  ZINC000550952205    0.1200
      5 C5          1.2358    3.0901   51.4844 C.3     1  ZINC000550952205   -0.0900
      6 H6          1.1081    2.8438   52.5386 H       1  ZINC000550952205    0.1000
      7 C7          2.6946    3.0203   51.1221 C.3     1  ZINC000550952205   -0.1300
      8 C8          3.6151    3.2614   52.3338 C.3     1  ZINC000550952205   -0.1200
      9 C9          3.1208    4.4037   53.2417 C.3     1  ZINC000550952205   -0.1300
     10 C10         2.6162    5.5848   52.4578 C.3     1  ZINC000550952205   -0.1500
     11 C11         1.0896    5.4441   52.2881 C.3     1  ZINC000550952205    0.3000
     12 F12         0.5415    4.9785   53.4881 F       1  ZINC000550952205   -0.2000
     13 F13         0.5478    6.7016   52.0009 F       1  ZINC000550952205   -0.2000
     14 C14         0.7296    4.5232   51.2222 C.3     1  ZINC000550952205   -0.1700
     15 C15        -3.3603    1.9446   50.4025 C.2     1  ZINC000550952205    0.5100
     16 O16        -4.1788    2.1909   49.5406 O.2     1  ZINC000550952205   -0.4900
     17 N17        -3.7596    1.7482   51.6747 N.am    1  ZINC000550952205   -0.6400
     18 C18        -5.1163    1.8284   52.0017 C.ar    1  ZINC000550952205    0.1500
     19 C19        -5.7002    3.0677   52.2590 C.ar    1  ZINC000550952205   -0.1200
     20 C20        -7.0198    3.1611   52.5784 C.ar    1  ZINC000550952205   -0.0400
     21 C21        -7.8219    2.0042   52.6550 C.ar    1  ZINC000550952205    0.0800
     22 N22        -9.1305    1.8846   52.9516 N.2     1  ZINC000550952205   -0.4700
     23 C23        -9.6372    0.7103   52.9569 C.2     1  ZINC000550952205    0.1200
     24 C24       -11.0814    0.4117   53.2672 C.3     1  ZINC000550952205   -0.1100
     25 C25       -11.7636   -0.6940   52.4591 C.3     1  ZINC000550952205   -0.1500
     26 C26       -11.3992   -0.9321   53.9259 C.3     1  ZINC000550952205   -0.1500
     27 S27        -8.4739   -0.4760   52.5678 S.3     1  ZINC000550952205    0.1200
     28 C28        -7.2326    0.7611   52.3955 C.ar    1  ZINC000550952205   -0.1700
     29 C29        -5.8829    0.6781   52.0646 C.ar    1  ZINC000550952205   -0.0700
     30 H30        -1.2460    2.4747   51.8543 H       1  ZINC000550952205    0.4200
     31 H31         0.8048    1.0889   50.8133 H       1  ZINC000550952205    0.0800
     32 H32         0.5800    2.3451   49.5724 H       1  ZINC000550952205    0.0800
     33 H33         2.9082    2.0351   50.7074 H       1  ZINC000550952205    0.0700
     34 H34         2.9060    3.7736   50.3633 H       1  ZINC000550952205    0.0700
     35 H35         3.6706    2.3447   52.9210 H       1  ZINC000550952205    0.0700
     36 H36         4.6141    3.5062   51.9732 H       1  ZINC000550952205    0.0700
     37 H37         2.3151    4.0292   53.8729 H       1  ZINC000550952205    0.0800
     38 H38         3.9434    4.7288   53.8789 H       1  ZINC000550952205    0.0700
     39 H39         2.8413    6.5052   52.9967 H       1  ZINC000550952205    0.0900
     40 H40         3.0932    5.6049   51.4780 H       1  ZINC000550952205    0.1000
     41 H41         1.1620    4.8792   50.2871 H       1  ZINC000550952205    0.1000
     42 H42        -0.3558    4.5055   51.1227 H       1  ZINC000550952205    0.1000
     43 H43        -3.1056    1.5513   52.3634 H       1  ZINC000550952205    0.4300
     44 H44        -5.0990    3.9633   52.2047 H       1  ZINC000550952205    0.1400
     45 H45        -7.4561    4.1293   52.7751 H       1  ZINC000550952205    0.1400
     46 H46       -11.6871    1.2702   53.5574 H       1  ZINC000550952205    0.1300
     47 H47       -12.8184   -0.5630   52.2174 H       1  ZINC000550952205    0.1000
     48 H48       -11.1679   -1.2055   51.7031 H       1  ZINC000550952205    0.1100
     49 H49       -10.5638   -1.6003   54.1349 H       1  ZINC000550952205    0.1000
     50 H50       -12.2143   -0.9579   54.6492 H       1  ZINC000550952205    0.1100
     51 H51        -5.4344   -0.2827   51.8599 H       1  ZINC000550952205    0.1400
@<TRIPOS>BOND
     1     1     2    2
     2     2     3   am
     3     2    15    1
     4     3     4    1
     5     3    30    1
     6     4     5    1
     7     4    31    1
     8     4    32    1
     9     5     6    1
    10     5    14    1
    11     5     7    1
    12     7     8    1
    13     7    33    1
    14     7    34    1
    15     8     9    1
    16     8    35    1
    17     8    36    1
    18     9    10    1
    19     9    37    1
    20     9    38    1
    21    10    11    1
    22    10    39    1
    23    10    40    1
    24    11    12    1
    25    11    13    1
    26    11    14    1
    27    14    41    1
    28    14    42    1
    29    15    16    2
    30    15    17   am
    31    17    18    1
    32    17    43    1
    33    18    29   ar
    34    18    19   ar
    35    19    20   ar
    36    19    44    1
    37    20    21   ar
    38    20    45    1
    39    21    28   ar
    40    21    22    1
    41    22    23    2
    42    23    24    1
    43    23    27    1
    44    24    26    1
    45    24    25    1
    46    24    46    1
    47    25    26    1
    48    25    47    1
    49    25    48    1
    50    26    49    1
    51    26    50    1
    52    27    28    1
    53    28    29   ar
    54    29    51    1
@<TRIPOS>SUBSTRUCTURE
     1 ZINC000550952205        1 TEMP              0 ****  ****    0 ROOT


##########                                Name:    ZINC000150894060
##########                DOCK_Rotatable_Bonds:                  10
##########                         Heavy_Atoms:                  27
##########                    Molecular_Weight:              366.42
##########                DOCK_Rotatable_Bonds:                  10
##########                       Formal_Charge:        -6.70552e-07
##########                     HBond_Acceptors:                   7
##########                        HBond_Donors:                   2
##########                         Heavy_Atoms:                  27
##########                          Grid_Score:          -33.105152
##########                     Grid_vdw_energy:          -33.184021
##########                      Grid_es_energy:            0.078868
##########           Internal_energy_repulsive:           13.312923

@<TRIPOS>MOLECULE
ZINC000150894060
 49 51 1 0 0
SMALL
USER_CHARGES


@<TRIPOS>ATOM
      1 C1        -13.1682   -0.5034   58.5131 C.3     1  ZINC000150894060   -0.1000
      2 C2        -12.2938   -1.6336   58.0344 C.2     1  ZINC000150894060   -0.0800
      3 C3        -11.8528   -1.8387   56.7585 C.2     1  ZINC000150894060   -0.1000
      4 C4        -12.1481   -0.9919   55.5981 C.2     1  ZINC000150894060    0.6100
      5 O5        -12.8212    0.0129   55.7335 O.2     1  ZINC000150894060   -0.5100
      6 N6        -11.6740   -1.3264   54.3817 N.am    1  ZINC000150894060   -0.7200
      7 C7        -11.9675   -0.4796   53.2228 C.3     1  ZINC000150894060    0.1200
      8 C8        -10.8444    0.5434   53.0412 C.3     1  ZINC000150894060   -0.1500
      9 C9         -9.5066   -0.1866   52.9058 C.3     1  ZINC000150894060    0.1200
     10 N10        -8.4309    0.7930   52.7337 N.am    1  ZINC000150894060   -0.7300
     11 C11        -7.2929    0.4404   52.1036 C.2     1  ZINC000150894060    0.5600
     12 O12        -7.1595   -0.6898   51.6768 O.2     1  ZINC000150894060   -0.5300
     13 C13        -6.2067    1.4285   51.9315 C.ar    1  ZINC000150894060   -0.1300
     14 C14        -5.6527    1.6484   50.6694 C.ar    1  ZINC000150894060   -0.0900
     15 C15        -4.6398    2.5723   50.5155 C.ar    1  ZINC000150894060   -0.0900
     16 C16        -4.1726    3.2799   51.6088 C.ar    1  ZINC000150894060   -0.0800
     17 C17        -3.0655    4.2870   51.4334 C.3     1  ZINC000150894060    0.1700
     18 N18        -1.7903    3.5862   51.2629 N.pl3   1  ZINC000150894060   -0.3700
     19 C19        -0.6142    3.9289   51.8288 C.2     1  ZINC000150894060    0.0500
     20 C20         0.3153    3.0330   51.4231 C.2     1  ZINC000150894060   -0.2700
     21 C21        -0.3144    2.1113   50.5804 C.2     1  ZINC000150894060    0.0400
     22 N22        -1.5779    2.4383   50.4885 N.2     1  ZINC000150894060   -0.2900
     23 C23        -4.7177    3.0670   52.8626 C.ar    1  ZINC000150894060   -0.1100
     24 C24        -5.7347    2.1498   53.0294 C.ar    1  ZINC000150894060   -0.0600
     25 O25       -11.0978   -2.9568   56.7525 O.3     1  ZINC000150894060   -0.1700
     26 C26       -11.0481   -3.4663   57.9900 C.2     1  ZINC000150894060    0.0000
     27 C27       -11.7700   -2.6760   58.8148 C.2     1  ZINC000150894060   -0.2300
     28 H28       -12.5427    0.3340   58.8224 H       1  ZINC000150894060    0.0800
     29 H29       -13.8266   -0.1858   57.7046 H       1  ZINC000150894060    0.0900
     30 H30       -13.7677   -0.8409   59.3587 H       1  ZINC000150894060    0.0700
     31 H31       -11.1384   -2.1279   54.2734 H       1  ZINC000150894060    0.4100
     32 H32       -12.0423   -1.0995   52.3294 H       1  ZINC000150894060    0.0800
     33 H33       -12.9112    0.0416   53.3833 H       1  ZINC000150894060    0.0800
     34 H34       -11.0301    1.1312   52.1423 H       1  ZINC000150894060    0.0800
     35 H35       -10.8115    1.2045   53.9072 H       1  ZINC000150894060    0.0800
     36 H36        -9.3215   -0.7755   53.8041 H       1  ZINC000150894060    0.0800
     37 H37        -9.5390   -0.8466   52.0390 H       1  ZINC000150894060    0.0800
     38 H38        -8.5378    1.6953   53.0732 H       1  ZINC000150894060    0.4000
     39 H39        -6.0160    1.0964   49.8152 H       1  ZINC000150894060    0.1300
     40 H40        -4.2103    2.7433   49.5394 H       1  ZINC000150894060    0.1300
     41 H41        -3.2654    4.8970   50.5524 H       1  ZINC000150894060    0.1100
     42 H42        -3.0134    4.9270   52.3142 H       1  ZINC000150894060    0.1000
     43 H43        -0.4450    4.7681   52.4872 H       1  ZINC000150894060    0.1700
     44 H44         1.3591    3.0306   51.7005 H       1  ZINC000150894060    0.1500
     45 H45         0.1595    1.2716   50.0938 H       1  ZINC000150894060    0.1800
     46 H46        -4.3488    3.6227   53.7120 H       1  ZINC000150894060    0.1300
     47 H47        -6.1596    1.9848   54.0085 H       1  ZINC000150894060    0.1400
     48 H48       -10.5154   -4.3595   58.2815 H       1  ZINC000150894060    0.2100
     49 H49       -11.9209   -2.8226   59.8741 H       1  ZINC000150894060    0.1600
@<TRIPOS>BOND
     1     1     2    1
     2     1    28    1
     3     1    29    1
     4     1    30    1
     5     2    27    1
     6     2     3    2
     7     3     4    1
     8     3    25    1
     9     4     5    2
    10     4     6   am
    11     6     7    1
    12     6    31    1
    13     7     8    1
    14     7    32    1
    15     7    33    1
    16     8     9    1
    17     8    34    1
    18     8    35    1
    19     9    10    1
    20     9    36    1
    21     9    37    1
    22    10    11   am
    23    10    38    1
    24    11    12    2
    25    11    13    1
    26    13    24   ar
    27    13    14   ar
    28    14    15   ar
    29    14    39    1
    30    15    16   ar
    31    15    40    1
    32    16    17    1
    33    16    23   ar
    34    17    18    1
    35    17    41    1
    36    17    42    1
    37    18    22    1
    38    18    19    1
    39    19    20    2
    40    19    43    1
    41    20    21    1
    42    20    44    1
    43    21    22    2
    44    21    45    1
    45    23    24   ar
    46    23    46    1
    47    24    47    1
    48    25    26    1
    49    26    27    2
    50    26    48    1
    51    27    49    1
@<TRIPOS>SUBSTRUCTURE
     1 ZINC000150894060        1 TEMP              0 ****  ****    0 ROOT


##########                                Name:    ZINC001119787528
##########                DOCK_Rotatable_Bonds:                   6
##########                         Heavy_Atoms:                  27
##########                    Molecular_Weight:             362.434
##########                DOCK_Rotatable_Bonds:                   6
##########                       Formal_Charge:          -0.0199998
##########                     HBond_Acceptors:                   7
##########                        HBond_Donors:                   1
##########                         Heavy_Atoms:                  27
##########                          Grid_Score:          -33.092106
##########                     Grid_vdw_energy:          -32.927032
##########                      Grid_es_energy:           -0.165072
##########           Internal_energy_repulsive:           12.897529

@<TRIPOS>MOLECULE
ZINC001119787528
 49 52 1 0 0
SMALL
USER_CHARGES


@<TRIPOS>ATOM
      1 C1         -5.4399    2.7769   50.6239 C.3     1  ZINC001119787528   -0.1700
      2 C2         -5.1297    1.9497   51.8730 C.3     1  ZINC001119787528    0.1000
      3 N3         -6.0365    0.8007   51.9354 N.pl3   1  ZINC001119787528   -0.4500
      4 C4         -5.7707   -0.4573   51.5143 C.2     1  ZINC001119787528    0.1800
      5 N5         -6.8214   -1.2046   51.7321 N.2     1  ZINC001119787528   -0.4800
      6 C6         -7.7784   -0.4605   52.2907 C.2     1  ZINC001119787528   -0.0200
      7 C7         -7.3043    0.7958   52.4335 C.2     1  ZINC001119787528   -0.0100
      8 C8         -8.0736    1.9429   53.0342 C.3     1  ZINC001119787528   -0.0600
      9 C9         -9.5668    1.5908   53.0339 C.3     1  ZINC001119787528    0.1400
     10 N10        -9.7360    0.2108   53.5127 N.am    1  ZINC001119787528   -0.6200
     11 C11       -10.3963   -0.0459   54.6593 C.2     1  ZINC001119787528    0.7200
     12 O12       -10.8607    0.8691   55.3111 O.2     1  ZINC001119787528   -0.5600
     13 N13       -10.5418   -1.3171   55.0830 N.am    1  ZINC001119787528   -0.6600
     14 C14       -11.2228   -1.5818   56.2656 C.ar    1  ZINC001119787528    0.4200
     15 C15       -10.7448   -2.5407   57.1590 C.ar    1  ZINC001119787528   -0.2500
     16 C16       -11.4572   -2.7673   58.3214 C.ar    1  ZINC001119787528    0.1600
     17 N17       -12.5622   -2.0721   58.5479 N.ar    1  ZINC001119787528   -0.5300
     18 C18       -12.9874   -1.1728   57.6833 C.ar    1  ZINC001119787528    0.3500
     19 C19       -14.2495   -0.4063   57.9845 C.3     1  ZINC001119787528   -0.0100
     20 C20       -15.4465   -1.2625   57.6600 C.ar    1  ZINC001119787528   -0.0800
     21 C21       -15.8418   -1.4282   56.3458 C.ar    1  ZINC001119787528   -0.1000
     22 C22       -16.9398   -2.2134   56.0481 C.ar    1  ZINC001119787528   -0.1200
     23 C23       -17.6423   -2.8333   57.0646 C.ar    1  ZINC001119787528   -0.1200
     24 C24       -17.2464   -2.6683   58.3787 C.ar    1  ZINC001119787528   -0.1200
     25 C25       -16.1458   -1.8865   58.6761 C.ar    1  ZINC001119787528   -0.1000
     26 N26       -12.3367   -0.9215   56.5657 N.ar    1  ZINC001119787528   -0.5500
     27 C27        -9.1647   -0.8864   52.7126 C.3     1  ZINC001119787528    0.2000
     28 H28        -4.7653    3.6319   50.5774 H       1  ZINC001119787528    0.0800
     29 H29        -5.3050    2.1589   49.7361 H       1  ZINC001119787528    0.0600
     30 H30        -6.4704    3.1293   50.6681 H       1  ZINC001119787528    0.0600
     31 H31        -4.0992    1.5973   51.8288 H       1  ZINC001119787528    0.0900
     32 H32        -5.2647    2.5677   52.7607 H       1  ZINC001119787528    0.1000
     33 H33        -4.8436   -0.7896   51.0710 H       1  ZINC001119787528    0.2100
     34 H34        -7.7382    2.1116   54.0575 H       1  ZINC001119787528    0.0800
     35 H35        -7.9103    2.8427   52.4412 H       1  ZINC001119787528    0.0900
     36 H36       -10.1023    2.2736   53.6936 H       1  ZINC001119787528    0.1100
     37 H37        -9.9612    1.6762   52.0214 H       1  ZINC001119787528    0.0800
     38 H38       -10.1712   -2.0471   54.5629 H       1  ZINC001119787528    0.4200
     39 H39        -9.8408   -3.0925   56.9474 H       1  ZINC001119787528    0.1800
     40 H40       -11.1175   -3.5022   59.0362 H       1  ZINC001119787528    0.1700
     41 H41       -14.2692   -0.1397   59.0412 H       1  ZINC001119787528    0.1000
     42 H42       -14.2769    0.5005   57.3804 H       1  ZINC001119787528    0.1000
     43 H43       -15.2931   -0.9438   55.5517 H       1  ZINC001119787528    0.1300
     44 H44       -17.2492   -2.3423   55.0214 H       1  ZINC001119787528    0.1200
     45 H45       -18.5006   -3.4462   56.8321 H       1  ZINC001119787528    0.1200
     46 H46       -17.7954   -3.1523   59.1729 H       1  ZINC001119787528    0.1200
     47 H47       -15.8366   -1.7577   59.7028 H       1  ZINC001119787528    0.1200
     48 H48        -9.7788   -1.0597   51.8289 H       1  ZINC001119787528    0.0900
     49 H49        -9.1120   -1.7947   53.3127 H       1  ZINC001119787528    0.0900
@<TRIPOS>BOND
     1     1     2    1
     2     1    28    1
     3     1    29    1
     4     1    30    1
     5     2     3    1
     6     2    31    1
     7     2    32    1
     8     3     7    1
     9     3     4    1
    10     4     5    2
    11     4    33    1
    12     5     6    1
    13     6    27    1
    14     6     7    2
    15     7     8    1
    16     8     9    1
    17     8    34    1
    18     8    35    1
    19     9    10    1
    20     9    36    1
    21     9    37    1
    22    10    11   am
    23    10    27    1
    24    11    12    2
    25    11    13   am
    26    13    14    1
    27    13    38    1
    28    14    26   ar
    29    14    15   ar
    30    15    16   ar
    31    15    39    1
    32    16    17   ar
    33    16    40    1
    34    17    18   ar
    35    18    19    1
    36    18    26   ar
    37    19    20    1
    38    19    41    1
    39    19    42    1
    40    20    25   ar
    41    20    21   ar
    42    21    22   ar
    43    21    43    1
    44    22    23   ar
    45    22    44    1
    46    23    24   ar
    47    23    45    1
    48    24    25   ar
    49    24    46    1
    50    25    47    1
    51    27    48    1
    52    27    49    1
@<TRIPOS>SUBSTRUCTURE
     1 ZINC001119787528        1 TEMP              0 ****  ****    0 ROOT


##########                                Name:    ZINC000194290865
##########                DOCK_Rotatable_Bonds:                   7
##########                         Heavy_Atoms:                  28
##########                    Molecular_Weight:             387.479
##########                DOCK_Rotatable_Bonds:                   7
##########                       Formal_Charge:          -0.0400003
##########                     HBond_Acceptors:                   7
##########                        HBond_Donors:                   0
##########                         Heavy_Atoms:                  28
##########                          Grid_Score:          -33.087448
##########                     Grid_vdw_energy:          -32.940178
##########                      Grid_es_energy:           -0.147269
##########           Internal_energy_repulsive:           38.732830

@<TRIPOS>MOLECULE
ZINC000194290865
 57 59 1 0 0
SMALL
USER_CHARGES


@<TRIPOS>ATOM
      1 C1         -1.5783    2.1855   57.6667 C.3     1  ZINC000194290865   -0.1500
      2 C2         -2.2179    3.4111   57.0113 C.3     1  ZINC000194290865    0.0600
      3 O3         -3.6366    3.1709   56.8166 O.3     1  ZINC000194290865   -0.3600
      4 C4         -4.3117    4.0694   56.0826 C.2     1  ZINC000194290865    0.4700
      5 O5         -3.7179    4.9594   55.5212 O.2     1  ZINC000194290865   -0.4900
      6 C6         -5.8102    3.9681   55.9589 C.3     1  ZINC000194290865   -0.0600
      7 C7         -6.4234    3.5220   57.2876 C.3     1  ZINC000194290865   -0.0700
      8 C8         -6.1982    4.6066   58.3430 C.3     1  ZINC000194290865   -0.1700
      9 C9         -7.9250    3.2923   57.1047 C.3     1  ZINC000194290865   -0.1600
     10 C10        -6.4057    5.3254   55.5187 C.3     1  ZINC000194290865   -0.1200
     11 C11        -6.5623    5.1522   53.9869 C.3     1  ZINC000194290865    0.0900
     12 N12        -6.9780    3.7376   53.8459 N.am    1  ZINC000194290865   -0.6100
     13 C13        -7.8901    3.2414   52.9866 C.2     1  ZINC000194290865    0.5800
     14 O14        -8.4687    3.9845   52.2185 O.2     1  ZINC000194290865   -0.5000
     15 C15        -8.1871    1.7914   52.9785 C.ar    1  ZINC000194290865    0.0100
     16 C16        -7.3199    0.8747   52.3535 C.ar    1  ZINC000194290865   -0.2200
     17 C17        -7.6394   -0.4940   52.3687 C.ar    1  ZINC000194290865    0.3000
     18 N18        -8.7455   -0.9099   52.9663 N.ar    1  ZINC000194290865   -0.4700
     19 C19        -9.5743   -0.0767   53.5583 C.ar    1  ZINC000194290865    0.2100
     20 C20       -10.8147   -0.6203   54.2194 C.3     1  ZINC000194290865   -0.1100
     21 C21        -9.3321    1.2870   53.5947 C.ar    1  ZINC000194290865   -0.1800
     22 O22        -6.6530   -1.1331   51.7081 O.3     1  ZINC000194290865   -0.0800
     23 N23        -5.6972   -0.1912   51.2647 N.2     1  ZINC000194290865   -0.2600
     24 C24        -6.0572    1.0023   51.6269 C.2     1  ZINC000194290865    0.1600
     25 C25        -5.3119    2.2824   51.3495 C.3     1  ZINC000194290865   -0.0400
     26 C26        -3.8261    1.9753   51.1530 C.3     1  ZINC000194290865   -0.1500
     27 C27        -5.8702    2.9332   50.0824 C.3     1  ZINC000194290865   -0.1400
     28 C28        -6.1888    2.9829   54.8373 C.3     1  ZINC000194290865    0.1200
     29 H29        -2.0513    2.0009   58.6312 H       1  ZINC000194290865    0.0700
     30 H30        -1.7147    1.3165   57.0229 H       1  ZINC000194290865    0.0700
     31 H31        -0.5133    2.3658   57.8128 H       1  ZINC000194290865    0.0800
     32 H32        -2.0815    4.2800   57.6552 H       1  ZINC000194290865    0.0700
     33 H33        -1.7449    3.5957   56.0468 H       1  ZINC000194290865    0.0700
     34 H34        -5.9511    2.5950   57.6127 H       1  ZINC000194290865    0.0900
     35 H35        -5.1285    4.7702   58.4733 H       1  ZINC000194290865    0.0500
     36 H36        -6.6707    5.5336   58.0178 H       1  ZINC000194290865    0.0800
     37 H37        -6.6352    4.2888   59.2897 H       1  ZINC000194290865    0.0600
     38 H38        -8.0855    2.5196   56.3529 H       1  ZINC000194290865    0.0500
     39 H39        -8.3620    2.9744   58.0514 H       1  ZINC000194290865    0.0600
     40 H40        -8.3974    4.2193   56.7795 H       1  ZINC000194290865    0.0800
     41 H41        -7.3745    5.4927   55.9893 H       1  ZINC000194290865    0.0900
     42 H42        -5.7187    6.1404   55.7467 H       1  ZINC000194290865    0.0900
     43 H43        -7.3327    5.8198   53.6011 H       1  ZINC000194290865    0.0900
     44 H44        -5.6126    5.3263   53.4810 H       1  ZINC000194290865    0.0900
     45 H45       -10.5959   -0.8621   55.2594 H       1  ZINC000194290865    0.0900
     46 H46       -11.6058    0.1284   54.1790 H       1  ZINC000194290865    0.0900
     47 H47       -11.1396   -1.5206   53.6977 H       1  ZINC000194290865    0.0900
     48 H48       -10.0262    1.9524   54.0866 H       1  ZINC000194290865    0.1600
     49 H49        -5.4339    2.9636   52.1918 H       1  ZINC000194290865    0.1100
     50 H50        -3.7042    1.2941   50.3108 H       1  ZINC000194290865    0.0700
     51 H51        -3.2871    2.9012   50.9524 H       1  ZINC000194290865    0.0700
     52 H52        -3.4284    1.5116   52.0558 H       1  ZINC000194290865    0.0600
     53 H53        -6.9288    3.1521   50.2225 H       1  ZINC000194290865    0.0600
     54 H54        -5.3312    3.8592   49.8819 H       1  ZINC000194290865    0.0700
     55 H55        -5.7484    2.2521   49.2402 H       1  ZINC000194290865    0.0600
     56 H56        -5.2869    2.5873   54.3705 H       1  ZINC000194290865    0.0800
     57 H57        -6.7869    2.1680   55.2453 H       1  ZINC000194290865    0.1000
@<TRIPOS>BOND
     1     1     2    1
     2     1    29    1
     3     1    30    1
     4     1    31    1
     5     2     3    1
     6     2    32    1
     7     2    33    1
     8     3     4    1
     9     4     5    2
    10     4     6    1
    11     6    28    1
    12     6     7    1
    13     6    10    1
    14     7     8    1
    15     7     9    1
    16     7    34    1
    17     8    35    1
    18     8    36    1
    19     8    37    1
    20     9    38    1
    21     9    39    1
    22     9    40    1
    23    10    11    1
    24    10    41    1
    25    10    42    1
    26    11    12    1
    27    11    43    1
    28    11    44    1
    29    12    13   am
    30    12    28    1
    31    13    14    2
    32    13    15    1
    33    15    21   ar
    34    15    16   ar
    35    16    24    1
    36    16    17   ar
    37    17    18   ar
    38    17    22    1
    39    18    19   ar
    40    19    20    1
    41    19    21   ar
    42    20    45    1
    43    20    46    1
    44    20    47    1
    45    21    48    1
    46    22    23    1
    47    23    24    2
    48    24    25    1
    49    25    26    1
    50    25    27    1
    51    25    49    1
    52    26    50    1
    53    26    51    1
    54    26    52    1
    55    27    53    1
    56    27    54    1
    57    27    55    1
    58    28    56    1
    59    28    57    1
@<TRIPOS>SUBSTRUCTURE
     1 ZINC000194290865        1 TEMP              0 ****  ****    0 ROOT


##########                                Name:    ZINC000006915700
##########                DOCK_Rotatable_Bonds:                   5
##########                         Heavy_Atoms:                  26
##########                    Molecular_Weight:             369.447
##########                DOCK_Rotatable_Bonds:                   5
##########                       Formal_Charge:        -1.04308e-07
##########                     HBond_Acceptors:                   8
##########                        HBond_Donors:                   1
##########                         Heavy_Atoms:                  26
##########                          Grid_Score:          -33.064335
##########                     Grid_vdw_energy:          -33.457794
##########                      Grid_es_energy:            0.393459
##########           Internal_energy_repulsive:            6.703478

@<TRIPOS>MOLECULE
ZINC000006915700
 45 48 1 0 0
SMALL
USER_CHARGES


@<TRIPOS>ATOM
      1 C1          2.1494    3.1640   49.4821 C.3     1  <0>        -0.1200
      2 C2          0.7713    2.8830   50.0234 C.ar    1  <0>        -0.0500
      3 C3         -0.0500    1.9751   49.3789 C.ar    1  <0>        -0.1300
      4 C4         -1.3126    1.7132   49.8699 C.ar    1  <0>        -0.0600
      5 C5         -1.7605    2.3662   51.0184 C.ar    1  <0>        -0.0700
      6 C6         -3.1144    2.0893   51.5508 C.2     1  <0>         0.4400
      7 N7         -3.7281    0.9616   51.2167 N.2     1  <0>        -0.5200
      8 C8         -4.9499    0.6979   51.6898 C.2     1  <0>         0.3600
      9 C9         -5.8227   -0.3697   51.5237 C.2     1  <0>        -0.3200
     10 C10        -6.9722   -0.0987   52.2676 C.2     1  <0>         0.5500
     11 O11        -7.9520   -0.8208   52.3551 O.2     1  <0>        -0.5200
     12 N12        -6.8169    1.0948   52.8732 N.am    1  <0>        -0.5000
     13 N13        -5.5633    1.6078   52.5261 N.pl3   1  <0>        -0.3300
     14 C14        -4.9053    2.7588   52.8511 C.2     1  <0>         0.3900
     15 S15        -5.6594    3.9424   53.9167 S.3     1  <0>         0.1200
     16 C16        -4.1999    4.5412   54.8040 C.3     1  <0>        -0.1500
     17 C17        -3.8820    3.6023   55.9392 C.2     1  <0>         0.5500
     18 O18        -4.7797    3.0474   56.5368 O.2     1  <0>        -0.5200
     19 N19        -2.6000    3.3794   56.2903 N.am    1  <0>        -0.6100
     20 C20        -2.1497    2.4889   57.3700 C.3     1  <0>         0.0900
     21 C21        -0.6095    2.5717   57.4198 C.3     1  <0>        -0.1300
     22 C22        -0.3125    3.9344   56.7399 C.3     1  <0>        -0.1400
     23 C23        -1.4166    3.9835   55.6513 C.3     1  <0>         0.1000
     24 N24        -3.6939    2.9763   52.3632 N.2     1  <0>        -0.5600
     25 C25        -0.9276    3.2804   51.6636 C.ar    1  <0>        -0.0500
     26 C26         0.3349    3.5298   51.1659 C.ar    1  <0>        -0.1300
     27 H27         2.8631    2.4712   49.9279 H       1  <0>         0.0800
     28 H28         2.1475    3.0369   48.3995 H       1  <0>         0.0700
     29 H29         2.4345    4.1871   49.7274 H       1  <0>         0.0700
     30 H30         0.2977    1.4706   48.4896 H       1  <0>         0.1300
     31 H31        -1.9530    1.0046   49.3657 H       1  <0>         0.1300
     32 H32        -5.6442   -1.2512   50.9258 H       1  <0>         0.1800
     33 H33        -7.4650    1.5253   53.4524 H       1  <0>         0.4400
     34 H34        -3.3519    4.5852   54.1206 H       1  <0>         0.1400
     35 H35        -4.3989    5.5367   55.2008 H       1  <0>         0.1400
     36 H36        -2.5695    2.8172   58.3207 H       1  <0>         0.0800
     37 H37        -2.4592    1.4651   57.1595 H       1  <0>         0.0800
     38 H38        -0.2564    2.5703   58.4511 H       1  <0>         0.0900
     39 H39        -0.1608    1.7537   56.8563 H       1  <0>         0.0800
     40 H40        -0.4205    4.7561   57.4479 H       1  <0>         0.0800
     41 H41         0.6795    3.9378   56.2882 H       1  <0>         0.0900
     42 H42        -1.1142    3.4057   54.7779 H       1  <0>         0.0800
     43 H43        -1.6267    5.0154   55.3703 H       1  <0>         0.0800
     44 H44        -1.2688    3.7891   52.5532 H       1  <0>         0.1400
     45 H45         0.9807    4.2372   51.6647 H       1  <0>         0.1300
@<TRIPOS>BOND
     1     1     2    1
     2     1    27    1
     3     1    28    1
     4     1    29    1
     5     2    26   ar
     6     2     3   ar
     7     3     4   ar
     8     3    30    1
     9     4     5   ar
    10     4    31    1
    11     5     6    1
    12     5    25   ar
    13     6    24    1
    14     6     7    2
    15     7     8    1
    16     8    13    1
    17     8     9    2
    18     9    10    1
    19     9    32    1
    20    10    11    2
    21    10    12   am
    22    12    13    1
    23    12    33    1
    24    13    14    1
    25    14    15    1
    26    14    24    2
    27    15    16    1
    28    16    17    1
    29    16    34    1
    30    16    35    1
    31    17    18    2
    32    17    19   am
    33    19    23    1
    34    19    20    1
    35    20    21    1
    36    20    36    1
    37    20    37    1
    38    21    22    1
    39    21    38    1
    40    21    39    1
    41    22    23    1
    42    22    40    1
    43    22    41    1
    44    23    42    1
    45    23    43    1
    46    25    26   ar
    47    25    44    1
    48    26    45    1
@<TRIPOS>SUBSTRUCTURE
     1 <0>         1 TEMP              0 ****  ****    0 ROOT


##########                                Name:    ZINC000013809319
##########                DOCK_Rotatable_Bonds:                  10
##########                         Heavy_Atoms:                  30
##########                    Molecular_Weight:             407.469
##########                DOCK_Rotatable_Bonds:                  10
##########                       Formal_Charge:         -0.00999978
##########                     HBond_Acceptors:                   7
##########                        HBond_Donors:                   1
##########                         Heavy_Atoms:                  30
##########                          Grid_Score:          -33.017815
##########                     Grid_vdw_energy:          -33.841721
##########                      Grid_es_energy:            0.823905
##########           Internal_energy_repulsive:           13.993758

@<TRIPOS>MOLECULE
ZINC000013809319
 55 57 1 0 0
SMALL
USER_CHARGES


@<TRIPOS>ATOM
      1 C1        -12.0262   -1.5357   58.1989 C.3     1  ZINC000013809319   -0.1500
      2 C2        -12.0868   -1.9602   56.7302 C.3     1  ZINC000013809319    0.0500
      3 O3        -12.3112   -0.8109   55.9111 O.3     1  ZINC000013809319   -0.3100
      4 C4        -11.2596   -0.3603   55.1798 C.ar    1  ZINC000013809319    0.1500
      5 C5        -10.4605    0.6636   55.6730 C.ar    1  ZINC000013809319   -0.2200
      6 C6         -9.3923    1.1230   54.9338 C.ar    1  ZINC000013809319   -0.0300
      7 C7         -9.1134    0.5585   53.6881 C.ar    1  ZINC000013809319   -0.1100
      8 C8         -7.9666    1.0490   52.8915 C.2     1  ZINC000013809319    0.2300
      9 C9         -8.1042    2.1674   52.0855 C.2     1  ZINC000013809319   -0.2900
     10 C10        -6.9894    2.5994   51.3460 C.2     1  ZINC000013809319    0.5300
     11 O11        -7.0643    3.5799   50.6234 O.2     1  ZINC000013809319   -0.5400
     12 N12        -5.8347    1.9090   51.4513 N.am    1  ZINC000013809319   -0.5100
     13 C13        -4.6574    2.3377   50.6921 C.3     1  ZINC000013809319    0.0700
     14 C14        -3.7839    3.2014   51.5651 C.2     1  ZINC000013809319    0.5000
     15 O15        -4.0735    4.3644   51.7511 O.2     1  ZINC000013809319   -0.5200
     16 N16        -2.6809    2.6815   52.1391 N.am    1  ZINC000013809319   -0.7200
     17 C17        -1.8327    3.5207   52.9892 C.3     1  ZINC000013809319    0.1300
     18 C18        -0.8122    4.2590   52.1208 C.3     1  ZINC000013809319   -0.0800
     19 C19         0.2199    3.2825   51.6185 C.ar    1  ZINC000013809319   -0.1200
     20 C20        -0.0053    2.5776   50.4523 C.ar    1  ZINC000013809319   -0.0800
     21 C21         0.9412    1.6809   49.9913 C.ar    1  ZINC000013809319   -0.1500
     22 C22         2.1150    1.4881   50.6956 C.ar    1  ZINC000013809319   -0.0800
     23 C23         2.3453    2.1912   51.8626 C.ar    1  ZINC000013809319   -0.2100
     24 C24         1.3998    3.0950   52.3244 C.ar    1  ZINC000013809319    0.1300
     25 O25         1.6238    3.7877   53.4718 O.3     1  ZINC000013809319   -0.3100
     26 C26         2.8845    3.5880   54.1145 C.3     1  ZINC000013809319    0.0300
     27 C27        -5.7591    0.8270   52.2520 C.2     1  ZINC000013809319    0.3900
     28 N28        -6.7820    0.4157   52.9488 N.2     1  ZINC000013809319   -0.5300
     29 C29        -9.9184   -0.4701   53.1957 C.ar    1  ZINC000013809319   -0.0500
     30 C30       -10.9818   -0.9282   53.9426 C.ar    1  ZINC000013809319   -0.1600
     31 H31       -11.2113   -0.8254   58.3385 H       1  ZINC000013809319    0.0700
     32 H32       -12.9691   -1.0671   58.4808 H       1  ZINC000013809319    0.0700
     33 H33       -11.8551   -2.4123   58.8237 H       1  ZINC000013809319    0.0800
     34 H34       -11.1439   -2.4288   56.4483 H       1  ZINC000013809319    0.0600
     35 H35       -12.9017   -2.6706   56.5906 H       1  ZINC000013809319    0.0600
     36 H36       -10.6772    1.1002   56.6369 H       1  ZINC000013809319    0.1300
     37 H37        -8.7717    1.9193   55.3177 H       1  ZINC000013809319    0.1400
     38 H38        -9.0451    2.6944   52.0264 H       1  ZINC000013809319    0.1600
     39 H39        -4.0949    1.4619   50.3687 H       1  ZINC000013809319    0.1300
     40 H40        -4.9757    2.9078   49.8193 H       1  ZINC000013809319    0.1300
     41 H41        -2.4487    1.7516   51.9894 H       1  ZINC000013809319    0.4000
     42 H42        -2.4519    4.2453   53.5178 H       1  ZINC000013809319    0.0700
     43 H43        -1.3094    2.8942   53.7116 H       1  ZINC000013809319    0.0700
     44 H44        -1.3208    4.7182   51.2731 H       1  ZINC000013809319    0.0800
     45 H45        -0.3228    5.0323   52.7131 H       1  ZINC000013809319    0.0800
     46 H46        -0.9215    2.7265   49.9003 H       1  ZINC000013809319    0.1300
     47 H47         0.7630    1.1301   49.0795 H       1  ZINC000013809319    0.1300
     48 H48         2.8526    0.7871   50.3337 H       1  ZINC000013809319    0.1300
     49 H49         3.2623    2.0399   52.4127 H       1  ZINC000013809319    0.1300
     50 H50         3.6877    3.8767   53.4366 H       1  ZINC000013809319    0.0600
     51 H51         2.9332    4.1984   55.0163 H       1  ZINC000013809319    0.1000
     52 H52         2.9940    2.5369   54.3809 H       1  ZINC000013809319    0.0600
     53 H53        -4.8254    0.2888   52.3214 H       1  ZINC000013809319    0.2000
     54 H54        -9.7054   -0.9091   52.2323 H       1  ZINC000013809319    0.1400
     55 H55       -11.6048   -1.7242   53.5624 H       1  ZINC000013809319    0.1400
@<TRIPOS>BOND
     1     1     2    1
     2     1    31    1
     3     1    32    1
     4     1    33    1
     5     2     3    1
     6     2    34    1
     7     2    35    1
     8     3     4    1
     9     4    30   ar
    10     4     5   ar
    11     5     6   ar
    12     5    36    1
    13     6     7   ar
    14     6    37    1
    15     7     8    1
    16     7    29   ar
    17     8    28    1
    18     8     9    2
    19     9    10    1
    20     9    38    1
    21    10    11    2
    22    10    12   am
    23    12    13    1
    24    12    27    1
    25    13    14    1
    26    13    39    1
    27    13    40    1
    28    14    15    2
    29    14    16   am
    30    16    17    1
    31    16    41    1
    32    17    18    1
    33    17    42    1
    34    17    43    1
    35    18    19    1
    36    18    44    1
    37    18    45    1
    38    19    24   ar
    39    19    20   ar
    40    20    21   ar
    41    20    46    1
    42    21    22   ar
    43    21    47    1
    44    22    23   ar
    45    22    48    1
    46    23    24   ar
    47    23    49    1
    48    24    25    1
    49    25    26    1
    50    26    50    1
    51    26    51    1
    52    26    52    1
    53    27    28    2
    54    27    53    1
    55    29    30   ar
    56    29    54    1
    57    30    55    1
@<TRIPOS>SUBSTRUCTURE
     1 ZINC000013809319        1 TEMP              0 ****  ****    0 ROOT


##########                                Name:    ZINC000008416770
##########                DOCK_Rotatable_Bonds:                  13
##########                         Heavy_Atoms:                  30
##########                    Molecular_Weight:             412.442
##########                DOCK_Rotatable_Bonds:                  13
##########                       Formal_Charge:          -0.0199998
##########                     HBond_Acceptors:                   8
##########                        HBond_Donors:                   2
##########                         Heavy_Atoms:                  30
##########                          Grid_Score:          -32.984055
##########                     Grid_vdw_energy:          -31.245193
##########                      Grid_es_energy:           -1.738863
##########           Internal_energy_repulsive:            7.929357

@<TRIPOS>MOLECULE
ZINC000008416770
 54 55 1 0 0
SMALL
USER_CHARGES


@<TRIPOS>ATOM
      1 C1        -19.2620   -0.8119   49.0078 C.3     1  ZINC000008416770   -0.1500
      2 C2        -18.2615   -0.3701   50.0776 C.3     1  ZINC000008416770    0.0600
      3 O3        -18.1998    1.0802   50.1131 O.3     1  ZINC000008416770   -0.3500
      4 C4        -17.3582    1.6350   51.0074 C.2     1  ZINC000008416770    0.5100
      5 O5        -17.7101    2.6011   51.6547 O.2     1  ZINC000008416770   -0.5100
      6 C6        -16.0100    1.0695   51.2005 C.ar    1  ZINC000008416770   -0.1500
      7 C7        -15.0569    1.1668   50.1823 C.ar    1  ZINC000008416770   -0.0400
      8 C8        -13.7994    0.6382   50.3662 C.ar    1  ZINC000008416770   -0.1400
      9 C9        -13.4763    0.0076   51.5637 C.ar    1  ZINC000008416770    0.1800
     10 N10       -12.2016   -0.5267   51.7464 N.am    1  ZINC000008416770   -0.6700
     11 C11       -11.3259    0.0852   52.5681 C.2     1  ZINC000008416770    0.5200
     12 O12       -11.6468    1.1004   53.1487 O.2     1  ZINC000008416770   -0.5100
     13 C13        -9.9480   -0.4924   52.7656 C.3     1  ZINC000008416770   -0.1300
     14 C14        -8.9511    0.6410   53.0159 C.3     1  ZINC000008416770   -0.1000
     15 C15        -7.5887    0.2302   52.5199 C.2     1  ZINC000008416770    0.4700
     16 O16        -7.2021   -0.9027   52.6845 O.2     1  ZINC000008416770   -0.5100
     17 O17        -6.8045    1.1229   51.8955 O.3     1  ZINC000008416770   -0.3300
     18 C18        -5.9014    0.6108   50.8803 C.3     1  ZINC000008416770    0.0500
     19 C19        -4.6760    1.4852   50.8109 C.2     1  ZINC000008416770    0.5100
     20 O20        -4.4872    2.1888   49.8411 O.2     1  ZINC000008416770   -0.4900
     21 N21        -3.7900    1.4855   51.8264 N.am    1  ZINC000008416770   -0.6700
     22 C22        -2.6522    2.2973   51.7620 C.ar    1  ZINC000008416770    0.1400
     23 C23        -2.5588    3.4292   52.5613 C.ar    1  ZINC000008416770   -0.1400
     24 C24        -1.4344    4.2285   52.4953 C.ar    1  ZINC000008416770   -0.1000
     25 C25        -0.4025    3.9031   51.6343 C.ar    1  ZINC000008416770   -0.1000
     26 C26         0.8227    4.7778   51.5646 C.3     1  ZINC000008416770   -0.1200
     27 C27        -0.4922    2.7766   50.8375 C.ar    1  ZINC000008416770   -0.1000
     28 C28        -1.6114    1.9700   50.9029 C.ar    1  ZINC000008416770   -0.1200
     29 C29       -14.4222   -0.0908   52.5795 C.ar    1  ZINC000008416770   -0.1600
     30 C30       -15.6802    0.4398   52.4044 C.ar    1  ZINC000008416770   -0.0300
     31 H31       -20.2479   -0.4121   49.2450 H       1  ZINC000008416770    0.0700
     32 H32       -18.9426   -0.4379   48.0350 H       1  ZINC000008416770    0.0700
     33 H33       -19.3082   -1.9006   48.9811 H       1  ZINC000008416770    0.0800
     34 H34       -18.5808   -0.7441   51.0503 H       1  ZINC000008416770    0.0700
     35 H35       -17.2756   -0.7699   49.8404 H       1  ZINC000008416770    0.0700
     36 H36       -15.3072    1.6558   49.2524 H       1  ZINC000008416770    0.1400
     37 H37       -13.0628    0.7127   49.5799 H       1  ZINC000008416770    0.1400
     38 H38       -11.9449   -1.3388   51.2821 H       1  ZINC000008416770    0.4200
     39 H39        -9.9556   -1.1655   53.6228 H       1  ZINC000008416770    0.1100
     40 H40        -9.6540   -1.0442   51.8727 H       1  ZINC000008416770    0.1100
     41 H41        -9.2768    1.5353   52.4845 H       1  ZINC000008416770    0.1200
     42 H42        -8.9008    0.8512   54.0842 H       1  ZINC000008416770    0.1200
     43 H43        -5.6074   -0.4072   51.1358 H       1  ZINC000008416770    0.1100
     44 H44        -6.4039    0.6119   49.9131 H       1  ZINC000008416770    0.1100
     45 H45        -3.9410    0.9229   52.6020 H       1  ZINC000008416770    0.4100
     46 H46        -3.3647    3.6843   53.2334 H       1  ZINC000008416770    0.1300
     47 H47        -1.3612    5.1089   53.1166 H       1  ZINC000008416770    0.1300
     48 H48         1.5596    4.4294   52.2883 H       1  ZINC000008416770    0.0700
     49 H49         1.2472    4.7294   50.5617 H       1  ZINC000008416770    0.0700
     50 H50         0.5476    5.8075   51.7932 H       1  ZINC000008416770    0.0700
     51 H51         0.3155    2.5251   50.1660 H       1  ZINC000008416770    0.1300
     52 H52        -1.6808    1.0902   50.2802 H       1  ZINC000008416770    0.1300
     53 H53       -14.1679   -0.5806   53.5078 H       1  ZINC000008416770    0.1400
     54 H54       -16.4139    0.3631   53.1932 H       1  ZINC000008416770    0.1400
@<TRIPOS>BOND
     1     1     2    1
     2     1    31    1
     3     1    32    1
     4     1    33    1
     5     2     3    1
     6     2    34    1
     7     2    35    1
     8     3     4    1
     9     4     5    2
    10     4     6    1
    11     6    30   ar
    12     6     7   ar
    13     7     8   ar
    14     7    36    1
    15     8     9   ar
    16     8    37    1
    17     9    10    1
    18     9    29   ar
    19    10    11   am
    20    10    38    1
    21    11    12    2
    22    11    13    1
    23    13    14    1
    24    13    39    1
    25    13    40    1
    26    14    15    1
    27    14    41    1
    28    14    42    1
    29    15    16    2
    30    15    17    1
    31    17    18    1
    32    18    19    1
    33    18    43    1
    34    18    44    1
    35    19    20    2
    36    19    21   am
    37    21    22    1
    38    21    45    1
    39    22    28   ar
    40    22    23   ar
    41    23    24   ar
    42    23    46    1
    43    24    25   ar
    44    24    47    1
    45    25    26    1
    46    25    27   ar
    47    26    48    1
    48    26    49    1
    49    26    50    1
    50    27    28   ar
    51    27    51    1
    52    28    52    1
    53    29    30   ar
    54    29    53    1
    55    30    54    1
@<TRIPOS>SUBSTRUCTURE
     1 ZINC000008416770        1 TEMP              0 ****  ****    0 ROOT


##########                                Name:    ZINC000558052810
##########                DOCK_Rotatable_Bonds:                   9
##########                         Heavy_Atoms:                  30
##########                    Molecular_Weight:             424.524
##########                DOCK_Rotatable_Bonds:                   9
##########                       Formal_Charge:          -0.0200002
##########                     HBond_Acceptors:                   8
##########                        HBond_Donors:                   1
##########                         Heavy_Atoms:                  30
##########                          Grid_Score:          -32.965141
##########                     Grid_vdw_energy:          -32.506195
##########                      Grid_es_energy:           -0.458945
##########           Internal_energy_repulsive:           12.037774

@<TRIPOS>MOLECULE
ZINC000558052810
 54 56 1 0 0
SMALL
USER_CHARGES


@<TRIPOS>ATOM
      1 C1        -17.2345   -3.8530   50.0635 C.3     1  ZINC000558052810   -0.1700
      2 C2        -17.4651   -2.7957   48.9819 C.3     1  ZINC000558052810    0.1100
      3 N3        -16.6116   -1.6343   49.2446 N.am    1  ZINC000558052810   -0.6100
      4 C4        -17.1607   -0.4618   49.9300 C.3     1  ZINC000558052810    0.0700
      5 C5        -15.3212   -1.6447   48.8557 C.2     1  ZINC000558052810    0.5600
      6 O6        -14.8655   -2.6176   48.2872 O.2     1  ZINC000558052810   -0.5300
      7 C7        -14.4598   -0.4725   49.1209 C.ar    1  ZINC000558052810   -0.1100
      8 C8        -14.1401    0.4096   48.0875 C.ar    1  ZINC000558052810   -0.1100
      9 C9        -13.3357    1.5031   48.3376 C.ar    1  ZINC000558052810   -0.1000
     10 C10       -12.8438    1.7285   49.6093 C.ar    1  ZINC000558052810   -0.1300
     11 C11       -13.1560    0.8557   50.6451 C.ar    1  ZINC000558052810    0.1400
     12 N12       -12.6552    1.0881   51.9305 N.am    1  ZINC000558052810   -0.6600
     13 C13       -11.7416    0.2503   52.4595 C.2     1  ZINC000558052810    0.5600
     14 O14       -11.3525   -0.7077   51.8193 O.2     1  ZINC000558052810   -0.4800
     15 C15       -11.2141    0.4952   53.8134 C.ar    1  ZINC000558052810   -0.1900
     16 C16       -11.7528   -0.1718   54.9196 C.ar    1  ZINC000558052810   -0.0200
     17 C17       -11.2222    0.0933   56.1697 C.ar    1  ZINC000558052810   -0.1900
     18 C18       -10.1847    1.0005   56.2917 C.ar    1  ZINC000558052810    0.1500
     19 N19        -9.6903    1.6196   55.2378 N.ar    1  ZINC000558052810   -0.4900
     20 C20       -10.1561    1.3991   54.0173 C.ar    1  ZINC000558052810    0.1600
     21 S21        -9.4575    2.2550   52.6446 S.3     1  ZINC000558052810    0.0600
     22 C22        -7.7376    2.3801   53.1945 C.3     1  ZINC000558052810   -0.0700
     23 C23        -6.8202    1.9643   52.0735 C.2     1  ZINC000558052810   -0.2000
     24 C24        -6.5300    0.7091   51.6554 C.2     1  ZINC000558052810   -0.0100
     25 C25        -7.0663   -0.5785   52.2258 C.3     1  ZINC000558052810   -0.0800
     26 O26        -5.6714    0.8383   50.6342 O.3     1  ZINC000558052810    0.1000
     27 N27        -5.4255    1.9998   50.4045 N.2     1  ZINC000558052810   -0.3600
     28 C28        -6.0683    2.7943   51.2107 C.2     1  ZINC000558052810    0.0300
     29 C29        -6.0140    4.3002   51.2274 C.3     1  ZINC000558052810   -0.0800
     30 C30       -13.9685   -0.2415   50.4058 C.ar    1  ZINC000558052810   -0.0700
     31 H31       -16.1890   -4.1609   50.0538 H       1  ZINC000558052810    0.0600
     32 H32       -17.4810   -3.4344   51.0392 H       1  ZINC000558052810    0.0600
     33 H33       -17.8695   -4.7171   49.8680 H       1  ZINC000558052810    0.0700
     34 H34       -17.2186   -3.2145   48.0062 H       1  ZINC000558052810    0.0800
     35 H35       -18.5107   -2.4879   48.9916 H       1  ZINC000558052810    0.0800
     36 H36       -17.1037   -0.6114   51.0082 H       1  ZINC000558052810    0.0600
     37 H37       -16.5856    0.4223   49.6549 H       1  ZINC000558052810    0.0800
     38 H38       -18.2015   -0.3239   49.6369 H       1  ZINC000558052810    0.0700
     39 H39       -14.5218    0.2365   47.0922 H       1  ZINC000558052810    0.1400
     40 H40       -13.0894    2.1844   47.5366 H       1  ZINC000558052810    0.1400
     41 H41       -12.2145    2.5856   49.7988 H       1  ZINC000558052810    0.1300
     42 H42       -12.9656    1.8522   52.4411 H       1  ZINC000558052810    0.4100
     43 H43       -12.5631   -0.8758   54.8004 H       1  ZINC000558052810    0.1400
     44 H44       -11.6153   -0.4042   57.0440 H       1  ZINC000558052810    0.1500
     45 H45        -9.7724    1.2057   57.2686 H       1  ZINC000558052810    0.1700
     46 H46        -7.5209    3.4100   53.4783 H       1  ZINC000558052810    0.1000
     47 H47        -7.5820    1.7263   54.0528 H       1  ZINC000558052810    0.1000
     48 H48        -7.9841   -0.8521   51.7052 H       1  ZINC000558052810    0.0900
     49 H49        -6.3266   -1.3686   52.0976 H       1  ZINC000558052810    0.0900
     50 H50        -7.2764   -0.4461   53.2872 H       1  ZINC000558052810    0.0900
     51 H51        -6.7863    4.6990   50.5695 H       1  ZINC000558052810    0.0800
     52 H52        -6.1814    4.6586   52.2431 H       1  ZINC000558052810    0.0800
     53 H53        -5.0351    4.6325   50.8816 H       1  ZINC000558052810    0.0800
     54 H54       -14.2124   -0.9207   51.2094 H       1  ZINC000558052810    0.1500
@<TRIPOS>BOND
     1     1     2    1
     2     1    31    1
     3     1    32    1
     4     1    33    1
     5     2     3    1
     6     2    34    1
     7     2    35    1
     8     3     4    1
     9     3     5   am
    10     4    36    1
    11     4    37    1
    12     4    38    1
    13     5     6    2
    14     5     7    1
    15     7    30   ar
    16     7     8   ar
    17     8     9   ar
    18     8    39    1
    19     9    10   ar
    20     9    40    1
    21    10    11   ar
    22    10    41    1
    23    11    12    1
    24    11    30   ar
    25    12    13   am
    26    12    42    1
    27    13    14    2
    28    13    15    1
    29    15    20   ar
    30    15    16   ar
    31    16    17   ar
    32    16    43    1
    33    17    18   ar
    34    17    44    1
    35    18    19   ar
    36    18    45    1
    37    19    20   ar
    38    20    21    1
    39    21    22    1
    40    22    23    1
    41    22    46    1
    42    22    47    1
    43    23    28    1
    44    23    24    2
    45    24    25    1
    46    24    26    1
    47    25    48    1
    48    25    49    1
    49    25    50    1
    50    26    27    1
    51    27    28    2
    52    28    29    1
    53    29    51    1
    54    29    52    1
    55    29    53    1
    56    30    54    1
@<TRIPOS>SUBSTRUCTURE
     1 ZINC000558052810        1 TEMP              0 ****  ****    0 ROOT


##########                                Name:    ZINC000772422035
##########                DOCK_Rotatable_Bonds:                  10
##########                         Heavy_Atoms:                  25
##########                    Molecular_Weight:             348.399
##########                DOCK_Rotatable_Bonds:                  10
##########                       Formal_Charge:          0.00999987
##########                     HBond_Acceptors:                   7
##########                        HBond_Donors:                   0
##########                         Heavy_Atoms:                  25
##########                          Grid_Score:          -32.937599
##########                     Grid_vdw_energy:          -33.281487
##########                      Grid_es_energy:            0.343887
##########           Internal_energy_repulsive:           15.824279

@<TRIPOS>MOLECULE
ZINC000772422035
 49 50 1 0 0
SMALL
USER_CHARGES


@<TRIPOS>ATOM
      1 C1        -14.1614   -1.4050   48.2178 C.3     1  ZINC000772422035    0.0300
      2 O2        -13.1618   -0.4547   48.5919 O.3     1  ZINC000772422035   -0.3900
      3 C3        -13.6713    0.6756   49.3024 C.3     1  ZINC000772422035    0.0600
      4 C4        -14.0927    0.2462   50.7091 C.3     1  ZINC000772422035    0.0700
      5 O5        -12.9753   -0.3342   51.3847 O.3     1  ZINC000772422035   -0.3000
      6 C6        -12.0479    0.5193   51.8870 C.ar    1  ZINC000772422035    0.3300
      7 C7        -10.7855    0.0454   52.2191 C.ar    1  ZINC000772422035   -0.1700
      8 C8         -9.8484    0.9265   52.7305 C.ar    1  ZINC000772422035   -0.0200
      9 C9         -8.4672    0.4522   53.1029 C.3     1  ZINC000772422035    0.1100
     10 O10        -7.5566    0.6998   51.9993 O.3     1  ZINC000772422035   -0.3500
     11 C11        -6.2721    0.3546   52.1800 C.2     1  ZINC000772422035    0.4700
     12 O12        -5.9858   -0.5184   52.9648 O.2     1  ZINC000772422035   -0.5000
     13 C13        -5.1872    1.0558   51.4041 C.3     1  ZINC000772422035   -0.1100
     14 C14        -5.0563    2.4975   51.8995 C.3     1  ZINC000772422035    0.0000
     15 H15        -5.7045    2.6450   52.7633 H       1  ZINC000772422035    0.1000
     16 C16        -5.4670    3.4598   50.7832 C.3     1  ZINC000772422035   -0.1500
     17 C17        -3.6264    2.7656   52.2930 C.2     1  ZINC000772422035   -0.2000
     18 C18        -3.1697    3.3719   53.4148 C.2     1  ZINC000772422035   -0.0200
     19 C19        -4.0009    3.9263   54.5429 C.3     1  ZINC000772422035   -0.0800
     20 O20        -1.8324    3.3816   53.3232 O.3     1  ZINC000772422035    0.1000
     21 N21        -1.4531    2.8623   52.2992 N.2     1  ZINC000772422035   -0.3600
     22 C22        -2.4510    2.4368   51.5795 C.2     1  ZINC000772422035    0.0300
     23 C23        -2.3696    1.7406   50.2455 C.3     1  ZINC000772422035   -0.0800
     24 C24       -10.2096    2.2567   52.8923 C.ar    1  ZINC000772422035   -0.1900
     25 C25       -11.4832    2.6584   52.5409 C.ar    1  ZINC000772422035    0.1400
     26 N26       -12.3531    1.7960   52.0505 N.ar    1  ZINC000772422035   -0.5300
     27 H27       -13.6945   -2.2321   47.6831 H       1  ZINC000772422035    0.0900
     28 H28       -14.6558   -1.7835   49.1124 H       1  ZINC000772422035    0.0400
     29 H29       -14.8965   -0.9240   47.5724 H       1  ZINC000772422035    0.0400
     30 H30       -12.8972    1.4399   49.3723 H       1  ZINC000772422035    0.0600
     31 H31       -14.5337    1.0795   48.7721 H       1  ZINC000772422035    0.0700
     32 H32       -14.4416    1.1163   51.2653 H       1  ZINC000772422035    0.0800
     33 H33       -14.8963   -0.4869   50.6397 H       1  ZINC000772422035    0.0800
     34 H34       -10.5382   -0.9968   52.0805 H       1  ZINC000772422035    0.1400
     35 H35        -8.1236    0.9915   53.9855 H       1  ZINC000772422035    0.0900
     36 H36        -8.4956   -0.6160   53.3179 H       1  ZINC000772422035    0.0900
     37 H37        -4.2412    0.5343   51.5496 H       1  ZINC000772422035    0.1100
     38 H38        -5.4417    1.0577   50.3442 H       1  ZINC000772422035    0.1100
     39 H39        -4.9057    3.2273   49.8783 H       1  ZINC000772422035    0.0600
     40 H40        -6.5338    3.3536   50.5863 H       1  ZINC000772422035    0.0800
     41 H41        -5.2543    4.4839   51.0898 H       1  ZINC000772422035    0.0600
     42 H42        -4.2401    3.1272   55.2446 H       1  ZINC000772422035    0.0900
     43 H43        -3.4403    4.7064   55.0579 H       1  ZINC000772422035    0.0900
     44 H44        -4.9235    4.3462   54.1421 H       1  ZINC000772422035    0.0900
     45 H45        -2.3858    0.6614   50.3972 H       1  ZINC000772422035    0.0800
     46 H46        -3.2201    2.0338   49.6301 H       1  ZINC000772422035    0.0800
     47 H47        -1.4438    2.0231   49.7440 H       1  ZINC000772422035    0.0800
     48 H48        -9.5024    2.9700   53.2891 H       1  ZINC000772422035    0.1400
     49 H49       -11.7693    3.6924   52.6646 H       1  ZINC000772422035    0.1700
@<TRIPOS>BOND
     1     1     2    1
     2     1    27    1
     3     1    28    1
     4     1    29    1
     5     2     3    1
     6     3     4    1
     7     3    30    1
     8     3    31    1
     9     4     5    1
    10     4    32    1
    11     4    33    1
    12     5     6    1
    13     6    26   ar
    14     6     7   ar
    15     7     8   ar
    16     7    34    1
    17     8     9    1
    18     8    24   ar
    19     9    10    1
    20     9    35    1
    21     9    36    1
    22    10    11    1
    23    11    12    2
    24    11    13    1
    25    13    14    1
    26    13    37    1
    27    13    38    1
    28    14    15    1
    29    14    16    1
    30    14    17    1
    31    16    39    1
    32    16    40    1
    33    16    41    1
    34    17    22    1
    35    17    18    2
    36    18    19    1
    37    18    20    1
    38    19    42    1
    39    19    43    1
    40    19    44    1
    41    20    21    1
    42    21    22    2
    43    22    23    1
    44    23    45    1
    45    23    46    1
    46    23    47    1
    47    24    25   ar
    48    24    48    1
    49    25    26   ar
    50    25    49    1
@<TRIPOS>SUBSTRUCTURE
     1 ZINC000772422035        1 TEMP              0 ****  ****    0 ROOT


##########                                Name:    ZINC000482846390
##########                DOCK_Rotatable_Bonds:                   9
##########                         Heavy_Atoms:                  30
##########                    Molecular_Weight:             420.469
##########                DOCK_Rotatable_Bonds:                   9
##########                       Formal_Charge:          -0.0100011
##########                     HBond_Acceptors:                  11
##########                        HBond_Donors:                   2
##########                         Heavy_Atoms:                  30
##########                          Grid_Score:          -32.922588
##########                     Grid_vdw_energy:          -32.088856
##########                      Grid_es_energy:           -0.833733
##########           Internal_energy_repulsive:           26.448277

@<TRIPOS>MOLECULE
ZINC000482846390
 58 60 1 0 0
SMALL
USER_CHARGES


@<TRIPOS>ATOM
      1 C1        -14.4095   -1.7869   58.2898 C.3     1  ZINC000482846390   -0.1000
      2 C2        -13.7686   -1.4524   56.9675 C.2     1  ZINC000482846390    0.0900
      3 C3        -14.3585   -0.8049   55.9361 C.2     1  ZINC000482846390   -0.2700
      4 C4        -13.4218   -0.6977   54.9030 C.2     1  ZINC000482846390    0.0700
      5 C5        -13.6535   -0.0456   53.5643 C.3     1  ZINC000482846390   -0.0500
      6 C6        -12.6486    1.0917   53.3702 C.3     1  ZINC000482846390    0.1500
      7 H7        -12.5015    1.6120   54.3166 H       1  ZINC000482846390    0.1000
      8 C8        -13.1849    2.0735   52.3265 C.3     1  ZINC000482846390   -0.1700
      9 N9        -11.3707    0.5413   52.9117 N.am    1  ZINC000482846390   -0.6800
     10 C10       -10.2742    0.6464   53.6883 C.2     1  ZINC000482846390    0.5100
     11 O11       -10.3459    1.1956   54.7680 O.2     1  ZINC000482846390   -0.5200
     12 C12        -8.9702    0.0865   53.2198 C.2     1  ZINC000482846390    0.5100
     13 O13        -8.8469   -1.1098   53.0572 O.2     1  ZINC000482846390   -0.5100
     14 N14        -7.9313    0.9101   52.9775 N.am    1  ZINC000482846390   -0.5900
     15 C15        -6.6450    0.3740   52.5104 C.3     1  ZINC000482846390    0.0500
     16 C16        -6.2632    1.0835   51.2055 C.3     1  ZINC000482846390    0.1000
     17 N17        -6.3963    2.5337   51.4031 N.am    1  ZINC000482846390   -0.6000
     18 C18        -5.3575    3.3573   51.1600 C.2     1  ZINC000482846390    0.5200
     19 O19        -5.4795    4.5531   51.3267 O.2     1  ZINC000482846390   -0.5000
     20 C20        -4.0555    2.7980   50.6849 C.2     1  ZINC000482846390    0.5200
     21 O21        -3.9636    2.3433   49.5636 O.2     1  ZINC000482846390   -0.5000
     22 N22        -2.9836    2.7987   51.5018 N.am    1  ZINC000482846390   -0.6000
     23 C23        -1.6899    2.2590   51.0543 C.3     1  ZINC000482846390    0.0700
     24 C24        -0.6042    3.3009   51.3468 C.3     1  ZINC000482846390    0.0500
     25 O25        -0.6874    3.6951   52.7186 O.3     1  ZINC000482846390   -0.3700
     26 C26        -1.9194    4.3286   53.0718 C.3     1  ZINC000482846390    0.0500
     27 C27        -3.0709    3.3444   52.8656 C.3     1  ZINC000482846390    0.0700
     28 C28        -7.6825    3.0698   51.8701 C.3     1  ZINC000482846390    0.0900
     29 C29        -8.0660    2.3608   53.1698 C.3     1  ZINC000482846390    0.0900
     30 N30       -12.3094   -1.2606   55.2998 N.2     1  ZINC000482846390   -0.2800
     31 N31       -12.5017   -1.7398   56.6020 N.pl3   1  ZINC000482846390   -0.4700
     32 H32       -14.2493   -0.9662   58.9890 H       1  ZINC000482846390    0.0800
     33 H33       -15.4793   -1.9390   58.1469 H       1  ZINC000482846390    0.0900
     34 H34       -13.9632   -2.6974   58.6898 H       1  ZINC000482846390    0.0700
     35 H35       -15.3734   -0.4364   55.9144 H       1  ZINC000482846390    0.1500
     36 H36       -13.5238   -0.7841   52.7731 H       1  ZINC000482846390    0.0900
     37 H37       -14.6668    0.3543   53.5255 H       1  ZINC000482846390    0.1100
     38 H38       -14.1356    2.4831   52.6676 H       1  ZINC000482846390    0.0700
     39 H39       -12.4689    2.8837   52.1882 H       1  ZINC000482846390    0.0700
     40 H40       -13.3320    1.5533   51.3800 H       1  ZINC000482846390    0.0600
     41 H41       -11.3137    0.1012   52.0491 H       1  ZINC000482846390    0.4200
     42 H42        -5.8780    0.5554   53.2634 H       1  ZINC000482846390    0.0800
     43 H43        -6.7386   -0.6971   52.3307 H       1  ZINC000482846390    0.1600
     44 H44        -5.2321    0.8427   50.9463 H       1  ZINC000482846390    0.1100
     45 H45        -6.9291    0.7607   50.4052 H       1  ZINC000482846390    0.0800
     46 H46        -1.4698    1.3380   51.5941 H       1  ZINC000482846390    0.0900
     47 H47        -1.7266    2.0577   49.9837 H       1  ZINC000482846390    0.0900
     48 H48         0.3772    2.8690   51.1511 H       1  ZINC000482846390    0.1100
     49 H49        -0.7536    4.1716   50.7082 H       1  ZINC000482846390    0.0600
     50 H50        -1.8841    4.6360   54.1169 H       1  ZINC000482846390    0.1100
     51 H51        -2.0735    5.2029   52.4394 H       1  ZINC000482846390    0.0600
     52 H52        -4.0224    3.8600   52.9962 H       1  ZINC000482846390    0.1100
     53 H53        -2.9919    2.5307   53.5865 H       1  ZINC000482846390    0.0800
     54 H54        -7.5888    4.1408   52.0499 H       1  ZINC000482846390    0.0900
     55 H55        -8.4494    2.8884   51.1171 H       1  ZINC000482846390    0.0900
     56 H56        -9.0972    2.6025   53.4277 H       1  ZINC000482846390    0.1100
     57 H57        -7.4009    2.6816   53.9715 H       1  ZINC000482846390    0.0800
     58 H58       -11.8425   -2.2021   57.1432 H       1  ZINC000482846390    0.4400
@<TRIPOS>BOND
     1     1     2    1
     2     1    32    1
     3     1    33    1
     4     1    34    1
     5     2    31    1
     6     2     3    2
     7     3     4    1
     8     3    35    1
     9     4     5    1
    10     4    30    2
    11     5     6    1
    12     5    36    1
    13     5    37    1
    14     6     7    1
    15     6     8    1
    16     6     9    1
    17     8    38    1
    18     8    39    1
    19     8    40    1
    20     9    10   am
    21     9    41    1
    22    10    11    2
    23    10    12    1
    24    12    13    2
    25    12    14   am
    26    14    29    1
    27    14    15    1
    28    15    16    1
    29    15    42    1
    30    15    43    1
    31    16    17    1
    32    16    44    1
    33    16    45    1
    34    17    18   am
    35    17    28    1
    36    18    19    2
    37    18    20    1
    38    20    21    2
    39    20    22   am
    40    22    27    1
    41    22    23    1
    42    23    24    1
    43    23    46    1
    44    23    47    1
    45    24    25    1
    46    24    48    1
    47    24    49    1
    48    25    26    1
    49    26    27    1
    50    26    50    1
    51    26    51    1
    52    27    52    1
    53    27    53    1
    54    28    29    1
    55    28    54    1
    56    28    55    1
    57    29    56    1
    58    29    57    1
    59    30    31    1
    60    31    58    1
@<TRIPOS>SUBSTRUCTURE
     1 ZINC000482846390        1 TEMP              0 ****  ****    0 ROOT


##########                                Name:    ZINC000179496896
##########                DOCK_Rotatable_Bonds:                   8
##########                         Heavy_Atoms:                  27
##########                    Molecular_Weight:             396.504
##########                DOCK_Rotatable_Bonds:                   8
##########                       Formal_Charge:          0.00999944
##########                     HBond_Acceptors:                   8
##########                        HBond_Donors:                   1
##########                         Heavy_Atoms:                  27
##########                          Grid_Score:          -32.921509
##########                     Grid_vdw_energy:          -33.115074
##########                      Grid_es_energy:            0.193567
##########           Internal_energy_repulsive:           22.428909

@<TRIPOS>MOLECULE
ZINC000179496896
 53 55 1 0 0
SMALL
USER_CHARGES


@<TRIPOS>ATOM
      1 C1        -10.7894   -1.3211   57.5284 C.3     1  ZINC000179496896   -0.1500
      2 C2        -11.6303   -1.9524   56.4170 C.3     1  ZINC000179496896   -0.1100
      3 C3        -12.8726   -2.6056   57.0261 C.3     1  ZINC000179496896   -0.1400
      4 C4        -12.0581   -0.8702   55.4238 C.3     1  ZINC000179496896    0.1200
      5 N5        -10.9119   -0.4866   54.5958 N.pl3   1  ZINC000179496896   -0.3300
      6 N6        -10.4482   -1.1776   53.4708 N.2     1  ZINC000179496896   -0.2700
      7 C7         -9.4129   -0.5493   52.9861 C.2     1  ZINC000179496896    0.0800
      8 C8         -9.1715    0.5840   53.7945 C.2     1  ZINC000179496896   -0.2500
      9 C9         -8.0982    1.5778   53.6103 C.2     1  ZINC000179496896    0.5900
     10 O10        -8.1640    2.6549   54.1709 O.2     1  ZINC000179496896   -0.5300
     11 N11        -7.0438    1.2925   52.8207 N.am    1  ZINC000179496896   -0.7100
     12 C12        -5.9781    2.2807   52.6363 C.3     1  ZINC000179496896    0.1300
     13 C13        -5.1915    1.9513   51.3660 C.3     1  ZINC000179496896    0.0700
     14 H14        -5.2208    0.8762   51.1891 H       1  ZINC000179496896    0.0900
     15 C15        -5.8164    2.6813   50.1754 C.3     1  ZINC000179496896   -0.1900
     16 N16        -3.7968    2.3831   51.5279 N.3     1  ZINC000179496896   -0.5300
     17 C17        -3.7088    3.8451   51.6510 C.3     1  ZINC000179496896    0.0600
     18 C18        -2.3309    4.2194   52.2105 C.3     1  ZINC000179496896   -0.0400
     19 C19        -1.2815    3.4778   51.4096 C.2     1  ZINC000179496896   -0.1700
     20 C20        -1.5498    2.4314   50.6034 C.2     1  ZINC000179496896   -0.1100
     21 C21        -0.4263    1.9137   49.9691 C.2     1  ZINC000179496896   -0.1200
     22 C22         0.7241    2.5190   50.2506 C.2     1  ZINC000179496896   -0.2200
     23 S23         0.4377    3.8338   51.3817 S.3     1  ZINC000179496896    0.1000
     24 C24        -2.9614    1.8891   50.4250 C.3     1  ZINC000179496896    0.1200
     25 C25       -10.1329    0.5903   54.7852 C.2     1  ZINC000179496896    0.0700
     26 C26       -10.2754    1.6124   55.8833 C.3     1  ZINC000179496896    0.3400
     27 F27        -9.0600    1.7377   56.5645 F       1  ZINC000179496896   -0.1500
     28 F28       -10.6282    2.8472   55.3281 F       1  ZINC000179496896   -0.2000
     29 H29       -10.4846   -2.0921   58.2361 H       1  ZINC000179496896    0.0600
     30 H30        -9.9043   -0.8558   57.0945 H       1  ZINC000179496896    0.0600
     31 H31       -11.3801   -0.5656   58.0464 H       1  ZINC000179496896    0.0600
     32 H32       -11.0395   -2.7080   55.8991 H       1  ZINC000179496896    0.0800
     33 H33       -13.4634   -1.8501   57.5439 H       1  ZINC000179496896    0.0600
     34 H34       -13.4717   -3.0555   56.2342 H       1  ZINC000179496896    0.0600
     35 H35       -12.5679   -3.3767   57.7336 H       1  ZINC000179496896    0.0700
     36 H36       -12.8538   -1.2560   54.7864 H       1  ZINC000179496896    0.1000
     37 H37       -12.4200    0.0012   55.9695 H       1  ZINC000179496896    0.1000
     38 H38        -8.8403   -0.8440   52.1191 H       1  ZINC000179496896    0.2000
     39 H39        -6.9906    0.4328   52.3745 H       1  ZINC000179496896    0.4100
     40 H40        -6.4162    3.2746   52.5449 H       1  ZINC000179496896    0.0700
     41 H41        -5.3077    2.2566   53.4953 H       1  ZINC000179496896    0.0700
     42 H42        -5.2560    2.4467   49.2705 H       1  ZINC000179496896    0.0600
     43 H43        -6.8514    2.3610   50.0554 H       1  ZINC000179496896    0.0700
     44 H44        -5.7871    3.7565   50.3524 H       1  ZINC000179496896    0.0600
     45 H45        -3.8402    4.3020   50.6701 H       1  ZINC000179496896    0.0400
     46 H46        -4.4859    4.2013   52.3272 H       1  ZINC000179496896    0.0900
     47 H47        -2.1747    5.2940   52.1162 H       1  ZINC000179496896    0.0800
     48 H48        -2.2679    3.9281   53.2589 H       1  ZINC000179496896    0.0900
     49 H49        -0.4839    1.0744   49.2920 H       1  ZINC000179496896    0.1400
     50 H50         1.6872    2.2447   49.8459 H       1  ZINC000179496896    0.1600
     51 H51        -2.9396    0.7995   50.4423 H       1  ZINC000179496896    0.0900
     52 H52        -3.3685    2.2345   49.4747 H       1  ZINC000179496896    0.0500
     53 H53       -11.0507    1.2924   56.5793 H       1  ZINC000179496896    0.1300
@<TRIPOS>BOND
     1     1     2    1
     2     1    29    1
     3     1    30    1
     4     1    31    1
     5     2     3    1
     6     2     4    1
     7     2    32    1
     8     3    33    1
     9     3    34    1
    10     3    35    1
    11     4     5    1
    12     4    36    1
    13     4    37    1
    14     5    25    1
    15     5     6    1
    16     6     7    2
    17     7     8    1
    18     7    38    1
    19     8     9    1
    20     8    25    2
    21     9    10    2
    22     9    11   am
    23    11    12    1
    24    11    39    1
    25    12    13    1
    26    12    40    1
    27    12    41    1
    28    13    14    1
    29    13    15    1
    30    13    16    1
    31    15    42    1
    32    15    43    1
    33    15    44    1
    34    16    24    1
    35    16    17    1
    36    17    18    1
    37    17    45    1
    38    17    46    1
    39    18    19    1
    40    18    47    1
    41    18    48    1
    42    19    23    1
    43    19    20    2
    44    20    21    1
    45    20    24    1
    46    21    22    2
    47    21    49    1
    48    22    23    1
    49    22    50    1
    50    24    51    1
    51    24    52    1
    52    25    26    1
    53    26    27    1
    54    26    28    1
    55    26    53    1
@<TRIPOS>SUBSTRUCTURE
     1 ZINC000179496896        1 TEMP              0 ****  ****    0 ROOT


##########                                Name:    ZINC000962730513
##########                DOCK_Rotatable_Bonds:                   6
##########                         Heavy_Atoms:                  24
##########                    Molecular_Weight:             342.465
##########                DOCK_Rotatable_Bonds:                   6
##########                       Formal_Charge:         -0.00999998
##########                     HBond_Acceptors:                   6
##########                        HBond_Donors:                   1
##########                         Heavy_Atoms:                  24
##########                          Grid_Score:          -32.906124
##########                     Grid_vdw_energy:          -32.948761
##########                      Grid_es_energy:            0.042637
##########           Internal_energy_repulsive:            6.336525

@<TRIPOS>MOLECULE
ZINC000962730513
 46 49 1 0 0
SMALL
USER_CHARGES


@<TRIPOS>ATOM
      1 C1        -12.5656    1.8297   53.6884 C.3     1  ZINC000962730513   -0.1400
      2 C2        -12.6602    0.3770   53.2174 C.3     1  ZINC000962730513   -0.0800
      3 C3        -12.0614   -0.5296   54.2616 C.2     1  ZINC000962730513   -0.0100
      4 C4        -10.7287   -0.8256   54.3245 C.2     1  ZINC000962730513   -0.2800
      5 C5         -9.7012   -0.3197   53.4097 C.2     1  ZINC000962730513    0.6000
      6 O6         -9.3935   -0.9638   52.4240 O.2     1  ZINC000962730513   -0.5200
      7 N7         -9.0973    0.8588   53.6601 N.am    1  ZINC000962730513   -0.7000
      8 C8         -8.0690    1.3637   52.7467 C.3     1  ZINC000962730513    0.1200
      9 H9         -8.4330    1.9791   51.9241 H       1  ZINC000962730513    0.1400
     10 C10        -6.8646    0.4608   52.4727 C.3     1  ZINC000962730513   -0.1700
     11 H11        -6.8358   -0.5412   52.9008 H       1  ZINC000962730513    0.1200
     12 C12        -6.0404    0.7157   51.1925 C.3     1  ZINC000962730513    0.0700
     13 N13        -5.0379    1.7374   51.5898 N.3     1  ZINC000962730513   -0.5000
     14 C14        -4.5126    2.4447   50.4142 C.3     1  ZINC000962730513    0.1100
     15 C15        -3.0074    2.3707   50.4145 C.ar    1  ZINC000962730513    0.3200
     16 N16        -2.3294    3.1037   51.2748 N.ar    1  ZINC000962730513   -0.5100
     17 C17        -1.0069    3.0648   51.3042 C.ar    1  ZINC000962730513    0.1500
     18 C18        -0.3368    2.2396   50.4150 C.ar    1  ZINC000962730513   -0.1900
     19 C19         1.1683    2.1652   50.4155 C.3     1  ZINC000962730513   -0.1100
     20 C20        -1.0843    1.4839   49.5254 C.ar    1  ZINC000962730513    0.1500
     21 N21        -2.4044    1.5709   49.5580 N.ar    1  ZINC000962730513   -0.5000
     22 C22        -5.7909    2.6626   52.4752 C.3     1  ZINC000962730513    0.0700
     23 C23        -6.7075    1.7210   53.3461 C.3     1  ZINC000962730513   -0.1700
     24 H24        -6.5230    1.6889   54.4199 H       1  ZINC000962730513    0.1300
     25 S25       -10.4441   -1.9101   55.6789 S.3     1  ZINC000962730513    0.1900
     26 C26       -12.1009   -1.9118   56.0862 C.2     1  ZINC000962730513   -0.2200
     27 C27       -12.8003   -1.1366   55.2491 C.2     1  ZINC000962730513   -0.1500
     28 H28       -13.1113    1.9442   54.6250 H       1  ZINC000962730513    0.0600
     29 H29       -11.5196    2.0942   53.8426 H       1  ZINC000962730513    0.0500
     30 H30       -12.9987    2.4855   52.9331 H       1  ZINC000962730513    0.0600
     31 H31       -13.7063    0.1125   53.0632 H       1  ZINC000962730513    0.1000
     32 H32       -12.1146    0.2625   52.2807 H       1  ZINC000962730513    0.0700
     33 H33        -9.3433    1.3727   54.4452 H       1  ZINC000962730513    0.4000
     34 H34        -5.5434   -0.1999   50.8717 H       1  ZINC000962730513    0.0900
     35 H35        -6.6806    1.1000   50.3984 H       1  ZINC000962730513    0.0500
     36 H36        -4.8991    1.9793   49.5075 H       1  ZINC000962730513    0.1000
     37 H37        -4.8251    3.4883   50.4486 H       1  ZINC000962730513    0.0700
     38 H38        -0.4573    3.6682   52.0115 H       1  ZINC000962730513    0.1700
     39 H39         1.4931    1.3804   51.0986 H       1  ZINC000962730513    0.0800
     40 H40         1.5214    1.9400   49.4091 H       1  ZINC000962730513    0.0700
     41 H41         1.5792    3.1215   50.7392 H       1  ZINC000962730513    0.0700
     42 H42        -0.5962    0.8302   48.8178 H       1  ZINC000962730513    0.1700
     43 H43        -5.1060    3.2129   53.1204 H       1  ZINC000962730513    0.0800
     44 H44        -6.3920    3.3515   51.8819 H       1  ZINC000962730513    0.0600
     45 H45       -12.5277   -2.4618   56.9119 H       1  ZINC000962730513    0.1700
     46 H46       -13.8685   -1.0041   55.3378 H       1  ZINC000962730513    0.1500
@<TRIPOS>BOND
     1     1     2    1
     2     1    28    1
     3     1    29    1
     4     1    30    1
     5     2     3    1
     6     2    31    1
     7     2    32    1
     8     3    27    1
     9     3     4    2
    10     4     5    1
    11     4    25    1
    12     5     6    2
    13     5     7   am
    14     7     8    1
    15     7    33    1
    16     8     9    1
    17     8    23    1
    18     8    10    1
    19    10    11    1
    20    10    23    1
    21    10    12    1
    22    12    13    1
    23    12    34    1
    24    12    35    1
    25    13    14    1
    26    13    22    1
    27    14    15    1
    28    14    36    1
    29    14    37    1
    30    15    21   ar
    31    15    16   ar
    32    16    17   ar
    33    17    18   ar
    34    17    38    1
    35    18    19    1
    36    18    20   ar
    37    19    39    1
    38    19    40    1
    39    19    41    1
    40    20    21   ar
    41    20    42    1
    42    22    23    1
    43    22    43    1
    44    22    44    1
    45    23    24    1
    46    25    26    1
    47    26    27    2
    48    26    45    1
    49    27    46    1
@<TRIPOS>SUBSTRUCTURE
     1 ZINC000962730513        1 TEMP              0 ****  ****    0 ROOT


##########                                Name:    ZINC000265724350
##########                DOCK_Rotatable_Bonds:                   8
##########                         Heavy_Atoms:                  23
##########                    Molecular_Weight:              345.42
##########                DOCK_Rotatable_Bonds:                   8
##########                       Formal_Charge:          -0.0300002
##########                     HBond_Acceptors:                   9
##########                        HBond_Donors:                   2
##########                         Heavy_Atoms:                  23
##########                          Grid_Score:          -32.871532
##########                     Grid_vdw_energy:          -30.960873
##########                      Grid_es_energy:           -1.910659
##########           Internal_energy_repulsive:            4.156554

@<TRIPOS>MOLECULE
ZINC000265724350
 46 47 1 0 0
SMALL
USER_CHARGES


@<TRIPOS>ATOM
      1 C1          3.0661    3.3121   56.6367 C.3     1  ZINC000265724350    0.0800
      2 N2          2.7129    2.9033   55.2749 N.am    1  ZINC000265724350   -1.1100
      3 S3          3.8597    2.9243   54.0805 S.o2    1  ZINC000265724350    2.7200
      4 O4          4.1993    4.2886   53.8742 O.2     1  ZINC000265724350   -0.9300
      5 O5          4.8141    1.9289   54.4230 O.2     1  ZINC000265724350   -0.9300
      6 C6          3.0794    2.3763   52.5987 C.2     1  ZINC000265724350   -0.5600
      7 C7          3.6998    1.7806   51.5565 C.2     1  ZINC000265724350   -0.0900
      8 C8          2.7174    1.5084   50.5916 C.2     1  ZINC000265724350   -0.1400
      9 C9          1.5325    1.9575   51.1004 C.2     1  ZINC000265724350   -0.0200
     10 C10         0.2266    1.8836   50.4370 C.2     1  ZINC000265724350    0.6000
     11 O11         0.1613    1.6305   49.2484 O.2     1  ZINC000265724350   -0.5000
     12 N12        -0.9013    2.0958   51.1437 N.am    1  ZINC000265724350   -0.7100
     13 C13        -2.2058    2.0203   50.4815 C.3     1  ZINC000265724350    0.1200
     14 C14        -3.3079    2.3657   51.4849 C.3     1  ZINC000265724350   -0.1100
     15 H15        -3.2765    1.6612   52.3160 H       1  ZINC000265724350    0.0800
     16 C16        -3.0912    3.7857   52.0116 C.3     1  ZINC000265724350   -0.1400
     17 C17        -4.6709    2.2801   50.7950 C.3     1  ZINC000265724350    0.0600
     18 N18        -5.6386    1.6452   51.6997 N.3     1  ZINC000265724350   -0.5300
     19 C19        -6.0310    0.3180   51.2043 C.3     1  ZINC000265724350    0.0100
     20 C20        -6.9914   -0.3309   52.2045 C.3     1  ZINC000265724350    0.0600
     21 O21        -8.1177    0.5280   52.4022 O.3     1  ZINC000265724350   -0.3900
     22 C22        -7.7720    1.8290   52.8850 C.3     1  ZINC000265724350    0.0600
     23 C23        -6.8195    2.4997   51.8917 C.3     1  ZINC000265724350    0.0200
     24 O24         1.7727    2.4763   52.3223 O.3     1  ZINC000265724350   -0.1100
     25 H25         2.1890    3.2329   57.2789 H       1  ZINC000265724350    0.0900
     26 H26         3.8550    2.6635   57.0177 H       1  ZINC000265724350    0.0600
     27 H27         3.4173    4.3439   56.6268 H       1  ZINC000265724350    0.0700
     28 H28         1.8073    2.6205   55.0730 H       1  ZINC000265724350    0.4200
     29 H29         4.7534    1.5561   51.4802 H       1  ZINC000265724350    0.1800
     30 H30         2.8693    1.0355   49.6326 H       1  ZINC000265724350    0.1700
     31 H31        -0.8491    2.2988   52.0908 H       1  ZINC000265724350    0.4100
     32 H32        -2.2342    2.7277   49.6528 H       1  ZINC000265724350    0.0800
     33 H33        -2.3629    1.0104   50.1025 H       1  ZINC000265724350    0.0700
     34 H34        -2.1202    3.8467   52.5032 H       1  ZINC000265724350    0.0500
     35 H35        -3.1228    4.4903   51.1805 H       1  ZINC000265724350    0.0600
     36 H36        -3.8764    4.0318   52.7265 H       1  ZINC000265724350    0.0700
     37 H37        -5.0138    3.2833   50.5422 H       1  ZINC000265724350    0.0800
     38 H38        -4.5808    1.6867   49.8851 H       1  ZINC000265724350    0.0400
     39 H39        -6.5263    0.4216   50.2389 H       1  ZINC000265724350    0.0400
     40 H40        -5.1441   -0.3062   51.0939 H       1  ZINC000265724350    0.0900
     41 H41        -7.3296   -1.2908   51.8142 H       1  ZINC000265724350    0.1000
     42 H42        -6.4790   -0.4837   53.1544 H       1  ZINC000265724350    0.0600
     43 H43        -8.6747    2.4312   52.9869 H       1  ZINC000265724350    0.1000
     44 H44        -7.2824    1.7390   53.8547 H       1  ZINC000265724350    0.0600
     45 H45        -6.5082    3.4682   52.2830 H       1  ZINC000265724350    0.0900
     46 H46        -7.3274    2.6382   50.9372 H       1  ZINC000265724350    0.0400
@<TRIPOS>BOND
     1     1     2    1
     2     1    25    1
     3     1    26    1
     4     1    27    1
     5     2     3   am
     6     2    28    1
     7     3     4    2
     8     3     5    2
     9     3     6    1
    10     6    24    1
    11     6     7    2
    12     7     8    1
    13     7    29    1
    14     8     9    2
    15     8    30    1
    16     9    10    1
    17     9    24    1
    18    10    11    2
    19    10    12   am
    20    12    13    1
    21    12    31    1
    22    13    14    1
    23    13    32    1
    24    13    33    1
    25    14    15    1
    26    14    16    1
    27    14    17    1
    28    16    34    1
    29    16    35    1
    30    16    36    1
    31    17    18    1
    32    17    37    1
    33    17    38    1
    34    18    23    1
    35    18    19    1
    36    19    20    1
    37    19    39    1
    38    19    40    1
    39    20    21    1
    40    20    41    1
    41    20    42    1
    42    21    22    1
    43    22    23    1
    44    22    43    1
    45    22    44    1
    46    23    45    1
    47    23    46    1
@<TRIPOS>SUBSTRUCTURE
     1 ZINC000265724350        1 TEMP              0 ****  ****    0 ROOT


##########                                Name:    ZINC000821177065
##########                DOCK_Rotatable_Bonds:                  10
##########                         Heavy_Atoms:                  25
##########                    Molecular_Weight:             341.413
##########                DOCK_Rotatable_Bonds:                  10
##########                       Formal_Charge:          0.00999917
##########                     HBond_Acceptors:                   7
##########                        HBond_Donors:                   3
##########                         Heavy_Atoms:                  25
##########                          Grid_Score:          -32.852989
##########                     Grid_vdw_energy:          -32.879856
##########                      Grid_es_energy:            0.026865
##########           Internal_energy_repulsive:           13.554433

@<TRIPOS>MOLECULE
ZINC000821177065
 48 51 1 0 0
SMALL
USER_CHARGES


@<TRIPOS>ATOM
      1 O1         -8.2681    1.3128   54.1637 O.2     1  ZINC000821177065   -0.5600
      2 C2         -8.9245    0.4540   53.6069 C.2     1  ZINC000821177065    0.7100
      3 N3        -10.1277    0.0997   54.1003 N.am    1  ZINC000821177065   -0.7300
      4 C4        -10.6419    0.7451   55.3109 C.3     1  ZINC000821177065    0.1200
      5 C5        -11.7007   -0.1513   55.9562 C.3     1  ZINC000821177065    0.1900
      6 O6        -12.2892    0.5299   57.0661 O.3     1  ZINC000821177065   -0.5400
      7 C7        -12.7842   -0.4821   54.9280 C.3     1  ZINC000821177065   -0.1500
      8 C8        -14.2422   -0.2985   55.3541 C.3     1  ZINC000821177065   -0.1600
      9 C9        -13.6045    0.6812   54.3669 C.3     1  ZINC000821177065   -0.1700
     10 C10       -11.0457   -1.4461   56.4414 C.3     1  ZINC000821177065   -0.1800
     11 C11       -10.9158   -1.6490   57.9523 C.3     1  ZINC000821177065   -0.1900
     12 C12       -11.9370   -2.4639   57.1561 C.3     1  ZINC000821177065   -0.1700
     13 N13        -8.4516   -0.1397   52.4933 N.am    1  ZINC000821177065   -0.6500
     14 C14        -7.2000    0.2289   51.9801 C.2     1  ZINC000821177065    0.3200
     15 N15        -6.9264    1.3417   51.3409 N.2     1  ZINC000821177065   -0.3200
     16 N16        -5.5688    1.3252   50.9966 N.pl3   1  ZINC000821177065   -0.3600
     17 C17        -4.8516    2.3781   50.2733 C.3     1  ZINC000821177065    0.1900
     18 C18        -3.4094    2.3945   50.7098 C.ar    1  ZINC000821177065    0.1100
     19 C19        -3.0760    2.9127   51.9466 C.ar    1  ZINC000821177065   -0.1500
     20 C20        -1.7460    2.9228   52.3389 C.ar    1  ZINC000821177065   -0.0700
     21 C21        -0.7974    2.4089   51.4684 C.ar    1  ZINC000821177065   -0.1700
     22 C22        -1.2059    1.9071   50.2470 C.ar    1  ZINC000821177065    0.1000
     23 N23        -2.4805    1.9092   49.9091 N.ar    1  ZINC000821177065   -0.4700
     24 C24        -5.0369    0.1700   51.4483 C.2     1  ZINC000821177065    0.0700
     25 C25        -6.0190   -0.5254   52.0654 C.2     1  ZINC000821177065   -0.2600
     26 H26       -10.6532   -0.5825   53.6538 H       1  ZINC000821177065    0.4000
     27 H27        -9.8236    0.9043   56.0133 H       1  ZINC000821177065    0.0700
     28 H28       -11.0883    1.7045   55.0495 H       1  ZINC000821177065    0.0800
     29 H29       -12.6284    1.4099   56.8526 H       1  ZINC000821177065    0.3800
     30 H30       -12.5566   -1.3084   54.2544 H       1  ZINC000821177065    0.1100
     31 H31       -14.9741   -1.0041   54.9611 H       1  ZINC000821177065    0.0900
     32 H32       -14.4294    0.0580   56.3670 H       1  ZINC000821177065    0.1100
     33 H33       -13.3722    1.6822   54.7303 H       1  ZINC000821177065    0.1000
     34 H34       -13.9169    0.6201   53.3244 H       1  ZINC000821177065    0.0900
     35 H35       -10.2455   -1.8332   55.8106 H       1  ZINC000821177065    0.1100
     36 H36       -10.0299   -2.1695   58.3159 H       1  ZINC000821177065    0.1000
     37 H37       -11.2969   -0.8600   58.6007 H       1  ZINC000821177065    0.1100
     38 H38       -12.9899   -2.2111   57.2806 H       1  ZINC000821177065    0.0900
     39 H39       -11.7229   -3.5206   56.9957 H       1  ZINC000821177065    0.1000
     40 H40        -8.9771   -0.8219   52.0469 H       1  ZINC000821177065    0.4100
     41 H41        -4.9048    2.1840   49.2020 H       1  ZINC000821177065    0.1000
     42 H42        -5.3080    3.3438   50.4906 H       1  ZINC000821177065    0.1200
     43 H43        -3.8416    3.3054   52.5994 H       1  ZINC000821177065    0.1400
     44 H44        -1.4560    3.3218   53.2998 H       1  ZINC000821177065    0.1400
     45 H45         0.2476    2.4010   51.7409 H       1  ZINC000821177065    0.1400
     46 H46        -0.4731    1.5053   49.5629 H       1  ZINC000821177065    0.1600
     47 H47        -4.0085   -0.1416   51.3402 H       1  ZINC000821177065    0.1800
     48 H48        -5.9149   -1.4929   52.5342 H       1  ZINC000821177065    0.1700
@<TRIPOS>BOND
     1     1     2    2
     2     2     3   am
     3     2    13   am
     4     3     4    1
     5     3    26    1
     6     4     5    1
     7     4    27    1
     8     4    28    1
     9     5     6    1
    10     5     7    1
    11     5    10    1
    12     6    29    1
    13     7     9    1
    14     7     8    1
    15     7    30    1
    16     8     9    1
    17     8    31    1
    18     8    32    1
    19     9    33    1
    20     9    34    1
    21    10    12    1
    22    10    11    1
    23    10    35    1
    24    11    12    1
    25    11    36    1
    26    11    37    1
    27    12    38    1
    28    12    39    1
    29    13    14    1
    30    13    40    1
    31    14    25    1
    32    14    15    2
    33    15    16    1
    34    16    17    1
    35    16    24    1
    36    17    18    1
    37    17    41    1
    38    17    42    1
    39    18    23   ar
    40    18    19   ar
    41    19    20   ar
    42    19    43    1
    43    20    21   ar
    44    20    44    1
    45    21    22   ar
    46    21    45    1
    47    22    23   ar
    48    22    46    1
    49    24    25    2
    50    24    47    1
    51    25    48    1
@<TRIPOS>SUBSTRUCTURE
     1 ZINC000821177065        1 TEMP              0 ****  ****    0 ROOT


##########                                Name:    ZINC000433961694
##########                DOCK_Rotatable_Bonds:                   7
##########                         Heavy_Atoms:                  29
##########                    Molecular_Weight:             413.472
##########                DOCK_Rotatable_Bonds:                   7
##########                       Formal_Charge:          0.00999992
##########                     HBond_Acceptors:                   8
##########                        HBond_Donors:                   0
##########                         Heavy_Atoms:                  29
##########                          Grid_Score:          -32.830513
##########                     Grid_vdw_energy:          -33.140594
##########                      Grid_es_energy:            0.310081
##########           Internal_energy_repulsive:           11.658939

@<TRIPOS>MOLECULE
ZINC000433961694
 49 52 1 0 0
SMALL
USER_CHARGES


@<TRIPOS>ATOM
      1 C1         -9.7956    2.0181   56.0444 C.3     1  ZINC000433961694   -0.1000
      2 C2         -9.5615    1.1034   54.8698 C.2     1  ZINC000433961694    0.1600
      3 C3        -10.4695    0.1824   54.4605 C.2     1  ZINC000433961694   -0.3000
      4 C4        -11.7806   -0.0689   55.0683 C.2     1  ZINC000433961694    0.6200
      5 O5        -12.7417    0.6018   54.7409 O.2     1  ZINC000433961694   -0.5100
      6 N6        -11.9208   -1.0428   55.9894 N.am    1  ZINC000433961694   -0.6100
      7 C7        -10.8457   -1.9264   56.4761 C.3     1  ZINC000433961694    0.1100
      8 C8        -11.3170   -2.3898   57.8771 C.3     1  ZINC000433961694   -0.1300
      9 C9        -12.8448   -2.5458   57.6560 C.3     1  ZINC000433961694    0.0800
     10 H10       -13.0728   -3.5130   57.2079 H       1  ZINC000433961694    0.1000
     11 O11       -13.5531   -2.3812   58.8862 O.3     1  ZINC000433961694   -0.2900
     12 C12       -14.9076   -2.4497   58.8314 C.ar    1  ZINC000433961694    0.1700
     13 C13       -15.6907   -1.9397   59.8639 C.ar    1  ZINC000433961694   -0.2600
     14 C14       -17.0644   -2.0287   59.7707 C.ar    1  ZINC000433961694    0.1400
     15 N15       -17.6361   -2.5877   58.7209 N.ar    1  ZINC000433961694   -0.5100
     16 C16       -16.9283   -3.0820   57.7229 C.ar    1  ZINC000433961694    0.1400
     17 C17       -15.5497   -3.0265   57.7385 C.ar    1  ZINC000433961694   -0.2000
     18 C18       -13.1699   -1.3957   56.6800 C.3     1  ZINC000433961694    0.0600
     19 S19        -9.7919   -0.6575   53.0675 S.3     1  ZINC000433961694    0.2100
     20 C20        -8.3766    0.2959   53.1693 C.2     1  ZINC000433961694    0.0400
     21 C21        -7.1945    0.1826   52.2415 C.3     1  ZINC000433961694    0.1400
     22 O22        -6.9828    1.4339   51.5846 O.3     1  ZINC000433961694   -0.3000
     23 C23        -5.6937    1.8280   51.4081 C.ar    1  ZINC000433961694    0.1200
     24 C24        -5.3413    3.1558   51.5997 C.ar    1  ZINC000433961694   -0.1800
     25 C25        -4.0310    3.5549   51.4199 C.ar    1  ZINC000433961694   -0.1100
     26 C26        -3.0699    2.6303   51.0482 C.ar    1  ZINC000433961694    0.0600
     27 F27        -1.7889    3.0220   50.8724 F       1  ZINC000433961694   -0.1400
     28 C28        -3.4202    1.3045   50.8572 C.ar    1  ZINC000433961694   -0.1100
     29 C29        -4.7286    0.9016   51.0418 C.ar    1  ZINC000433961694   -0.1200
     30 N30        -8.4663    1.1327   54.1527 N.2     1  ZINC000433961694   -0.4500
     31 H31       -10.2798    2.9326   55.7018 H       1  ZINC000433961694    0.0800
     32 H32       -10.4354    1.5187   56.7719 H       1  ZINC000433961694    0.1000
     33 H33        -8.8408    2.2645   56.5089 H       1  ZINC000433961694    0.0800
     34 H34       -10.7293   -2.7832   55.8124 H       1  ZINC000433961694    0.0800
     35 H35        -9.9083   -1.3758   56.5541 H       1  ZINC000433961694    0.1000
     36 H36       -10.8619   -3.3427   58.1470 H       1  ZINC000433961694    0.1000
     37 H37       -11.1068   -1.6309   58.6308 H       1  ZINC000433961694    0.1000
     38 H38       -15.2291   -1.4814   60.7260 H       1  ZINC000433961694    0.1400
     39 H39       -17.6795   -1.6362   60.5669 H       1  ZINC000433961694    0.1600
     40 H40       -17.4344   -3.5316   56.8814 H       1  ZINC000433961694    0.1700
     41 H41       -14.9762   -3.4327   56.9184 H       1  ZINC000433961694    0.1400
     42 H42       -13.5491   -0.5362   57.2329 H       1  ZINC000433961694    0.0900
     43 H43       -13.9099   -1.7261   55.9511 H       1  ZINC000433961694    0.0800
     44 H44        -6.3061   -0.0813   52.8153 H       1  ZINC000433961694    0.0900
     45 H45        -7.3892   -0.5899   51.4976 H       1  ZINC000433961694    0.1000
     46 H46        -6.0910    3.8774   51.8888 H       1  ZINC000433961694    0.1400
     47 H47        -3.7564    4.5887   51.5690 H       1  ZINC000433961694    0.1400
     48 H48        -2.6693    0.5842   50.5675 H       1  ZINC000433961694    0.1500
     49 H49        -5.0016   -0.1327   50.8927 H       1  ZINC000433961694    0.1400
@<TRIPOS>BOND
     1     1     2    1
     2     1    31    1
     3     1    32    1
     4     1    33    1
     5     2    30    1
     6     2     3    2
     7     3     4    1
     8     3    19    1
     9     4     5    2
    10     4     6   am
    11     6    18    1
    12     6     7    1
    13     7     8    1
    14     7    34    1
    15     7    35    1
    16     8     9    1
    17     8    36    1
    18     8    37    1
    19     9    10    1
    20     9    11    1
    21     9    18    1
    22    11    12    1
    23    12    17   ar
    24    12    13   ar
    25    13    14   ar
    26    13    38    1
    27    14    15   ar
    28    14    39    1
    29    15    16   ar
    30    16    17   ar
    31    16    40    1
    32    17    41    1
    33    18    42    1
    34    18    43    1
    35    19    20    1
    36    20    21    1
    37    20    30    2
    38    21    22    1
    39    21    44    1
    40    21    45    1
    41    22    23    1
    42    23    29   ar
    43    23    24   ar
    44    24    25   ar
    45    24    46    1
    46    25    26   ar
    47    25    47    1
    48    26    27    1
    49    26    28   ar
    50    28    29   ar
    51    28    48    1
    52    29    49    1
@<TRIPOS>SUBSTRUCTURE
     1 ZINC000433961694        1 TEMP              0 ****  ****    0 ROOT


##########                                Name:    ZINC000499369364
##########                DOCK_Rotatable_Bonds:                   9
##########                         Heavy_Atoms:                  25
##########                    Molecular_Weight:             384.527
##########                DOCK_Rotatable_Bonds:                   9
##########                       Formal_Charge:        -5.88596e-07
##########                     HBond_Acceptors:                  10
##########                        HBond_Donors:                   1
##########                         Heavy_Atoms:                  25
##########                          Grid_Score:          -32.806259
##########                     Grid_vdw_energy:          -31.322153
##########                      Grid_es_energy:           -1.484107
##########           Internal_energy_repulsive:           32.027683

@<TRIPOS>MOLECULE
ZINC000499369364
 49 51 1 0 0
SMALL
USER_CHARGES


@<TRIPOS>ATOM
      1 C1         -8.9982    6.3079   49.3934 C.3     1  ZINC000499369364   -0.1500
      2 C2         -8.4301    5.0753   50.1000 C.3     1  ZINC000499369364   -0.1000
      3 C3         -7.0752    5.4223   50.7203 C.3     1  ZINC000499369364   -0.1500
      4 C4         -9.3951    4.6281   51.1998 C.3     1  ZINC000499369364    0.1500
      5 H5         -9.5223    5.4348   51.9217 H       1  ZINC000499369364    0.0900
      6 C6        -10.7498    4.2806   50.5794 C.3     1  ZINC000499369364   -0.1700
      7 N7         -8.8509    3.4483   51.8767 N.am    1  ZINC000499369364   -0.7200
      8 C8         -8.0511    3.5970   52.9514 C.2     1  ZINC000499369364    0.5100
      9 O9         -7.7807    4.7075   53.3571 O.2     1  ZINC000499369364   -0.5100
     10 C10        -7.4928    2.3834   53.6488 C.3     1  ZINC000499369364    0.1200
     11 H11        -7.1104    2.6857   54.6238 H       1  ZINC000499369364    0.1200
     12 C12        -8.6335    1.3615   53.8575 C.3     1  ZINC000499369364   -0.0800
     13 S13        -8.3689    0.2275   52.4300 S.3     1  ZINC000499369364   -0.2400
     14 C14        -6.5421    0.4536   52.4271 C.3     1  ZINC000499369364    0.1400
     15 N15        -6.3920    1.8544   52.8580 N.am    1  ZINC000499369364   -0.6000
     16 C16        -5.3102    2.5949   52.5452 C.2     1  ZINC000499369364    0.5600
     17 O17        -5.2318    3.7443   52.9242 O.2     1  ZINC000499369364   -0.5000
     18 C18        -4.1980    1.9947   51.7243 C.3     1  ZINC000499369364   -0.1500
     19 S19        -2.6242    2.7568   52.1918 S.3     1  ZINC000499369364    0.1300
     20 C20        -1.6202    2.2397   50.8393 C.2     1  ZINC000499369364    0.2000
     21 N21        -2.0419    1.7217   49.7061 N.2     1  ZINC000499369364   -0.3400
     22 N22        -1.0490    1.4556   48.9362 N.2     1  ZINC000499369364   -0.0300
     23 N23         0.0604    1.7772   49.5084 N.2     1  ZINC000499369364   -0.0800
     24 N24        -0.2697    2.3060   50.7685 N.pl3   1  ZINC000499369364   -0.3300
     25 C25         0.6508    2.8119   51.7897 C.3     1  ZINC000499369364    0.0500
     26 C26         1.9940    2.0962   51.9470 C.3     1  ZINC000499369364   -0.1500
     27 C27         1.9376    3.4860   51.3093 C.3     1  ZINC000499369364   -0.1600
     28 H28        -8.3107    6.6266   48.6099 H       1  ZINC000499369364    0.0600
     29 H29        -9.9634    6.0607   48.9515 H       1  ZINC000499369364    0.0600
     30 H30        -9.1250    7.1144   50.1156 H       1  ZINC000499369364    0.0600
     31 H31        -8.3032    4.2688   49.3778 H       1  ZINC000499369364    0.0800
     32 H32        -6.3878    5.7410   49.9368 H       1  ZINC000499369364    0.0600
     33 H33        -7.2021    6.2288   51.4424 H       1  ZINC000499369364    0.0600
     34 H34        -6.6706    4.5442   51.2238 H       1  ZINC000499369364    0.0500
     35 H35       -10.6225    3.4739   49.8575 H       1  ZINC000499369364    0.0600
     36 H36       -11.4372    3.9619   51.3629 H       1  ZINC000499369364    0.0600
     37 H37       -11.1547    5.1583   50.0757 H       1  ZINC000499369364    0.0700
     38 H38        -9.0662    2.5601   51.5516 H       1  ZINC000499369364    0.4000
     39 H39        -8.5178    0.8332   54.8039 H       1  ZINC000499369364    0.1200
     40 H40        -9.6084    1.8453   53.7977 H       1  ZINC000499369364    0.1300
     41 H41        -6.0675   -0.2237   53.1369 H       1  ZINC000499369364    0.1100
     42 H42        -6.1366    0.3119   51.4252 H       1  ZINC000499369364    0.1200
     43 H43        -4.1502    0.9211   51.9069 H       1  ZINC000499369364    0.1300
     44 H44        -4.3891    2.1752   50.6664 H       1  ZINC000499369364    0.1300
     45 H45         0.1820    3.2068   52.6910 H       1  ZINC000499369364    0.1600
     46 H46         2.4090    2.0201   52.9520 H       1  ZINC000499369364    0.1200
     47 H47         2.1927    1.2491   51.2907 H       1  ZINC000499369364    0.1200
     48 H48         2.0993    3.5529   50.2335 H       1  ZINC000499369364    0.1100
     49 H49         2.3156    4.3240   51.8948 H       1  ZINC000499369364    0.1200
@<TRIPOS>BOND
     1     1     2    1
     2     1    28    1
     3     1    29    1
     4     1    30    1
     5     2     3    1
     6     2     4    1
     7     2    31    1
     8     3    32    1
     9     3    33    1
    10     3    34    1
    11     4     5    1
    12     4     6    1
    13     4     7    1
    14     6    35    1
    15     6    36    1
    16     6    37    1
    17     7     8   am
    18     7    38    1
    19     8     9    2
    20     8    10    1
    21    10    11    1
    22    10    15    1
    23    10    12    1
    24    12    13    1
    25    12    39    1
    26    12    40    1
    27    13    14    1
    28    14    15    1
    29    14    41    1
    30    14    42    1
    31    15    16   am
    32    16    17    2
    33    16    18    1
    34    18    19    1
    35    18    43    1
    36    18    44    1
    37    19    20    1
    38    20    24    1
    39    20    21    2
    40    21    22    1
    41    22    23    2
    42    23    24    1
    43    24    25    1
    44    25    27    1
    45    25    26    1
    46    25    45    1
    47    26    27    1
    48    26    46    1
    49    26    47    1
    50    27    48    1
    51    27    49    1
@<TRIPOS>SUBSTRUCTURE
     1 ZINC000499369364        1 TEMP              0 ****  ****    0 ROOT


##########                                Name:    ZINC001039825450
##########                DOCK_Rotatable_Bonds:                   8
##########                         Heavy_Atoms:                  24
##########                    Molecular_Weight:             337.339
##########                DOCK_Rotatable_Bonds:                   8
##########                       Formal_Charge:           0.0100001
##########                     HBond_Acceptors:                  11
##########                        HBond_Donors:                   4
##########                         Heavy_Atoms:                  24
##########                          Grid_Score:          -32.781151
##########                     Grid_vdw_energy:          -31.196045
##########                      Grid_es_energy:           -1.585104
##########           Internal_energy_repulsive:            8.855366

@<TRIPOS>MOLECULE
ZINC001039825450
 43 45 1 0 0
SMALL
USER_CHARGES


@<TRIPOS>ATOM
      1 O1         -8.3678   -0.9064   52.9388 O.2     1  ZINC001039825450   -0.5100
      2 C2         -8.8110    0.1813   52.6365 C.2     1  ZINC001039825450    0.5000
      3 C3        -10.2890    0.4516   52.7535 C.3     1  ZINC001039825450    0.1300
      4 N4        -10.8045   -0.1726   53.9745 N.pl3   1  ZINC001039825450   -0.1500
      5 N5        -10.2946   -0.0186   55.1450 N.2     1  ZINC001039825450   -0.2800
      6 C6        -11.0001   -0.7151   56.0072 C.2     1  ZINC001039825450   -0.0200
      7 C7        -12.0123   -1.3290   55.2660 C.2     1  ZINC001039825450   -0.0200
      8 N8        -11.8318   -0.9446   54.0228 N.2     1  ZINC001039825450   -0.2800
      9 N9         -7.9812    1.1501   52.2014 N.am    1  ZINC001039825450   -0.7300
     10 C10        -6.5445    0.8873   52.0877 C.3     1  ZINC001039825450    0.1000
     11 C11        -5.8953    1.9686   51.2216 C.3     1  ZINC001039825450    0.1100
     12 O12        -6.3541    1.8754   49.8715 O.3     1  ZINC001039825450   -0.5400
     13 C13        -6.1741    3.3794   51.8042 C.3     1  ZINC001039825450   -0.1600
     14 C14        -4.9617    4.1818   51.2693 C.3     1  ZINC001039825450    0.1000
     15 N15        -3.8299    3.2389   51.3271 N.am    1  ZINC001039825450   -0.6100
     16 C16        -2.5281    3.5783   51.4071 C.2     1  ZINC001039825450    0.5200
     17 O17        -2.2070    4.7474   51.4383 O.2     1  ZINC001039825450   -0.5100
     18 C18        -1.4713    2.5051   51.4576 C.3     1  ZINC001039825450    0.1100
     19 H19        -1.7299    1.7495   52.1994 H       1  ZINC001039825450    0.1200
     20 C20        -0.0921    3.1183   51.7684 C.3     1  ZINC001039825450    0.1100
     21 N21         0.7159    2.7861   50.5854 N.am    1  ZINC001039825450   -0.7400
     22 C22        -0.0370    2.0976   49.7175 C.2     1  ZINC001039825450    0.7100
     23 O23         0.3825    1.6951   48.6497 O.2     1  ZINC001039825450   -0.5800
     24 N24        -1.2966    1.8899   50.1335 N.am    1  ZINC001039825450   -0.7200
     25 C25        -4.3566    1.8669   51.2835 C.3     1  ZINC001039825450    0.1200
     26 H26       -10.4594    1.5275   52.7956 H       1  ZINC001039825450    0.1400
     27 H27       -10.8041    0.0358   51.8876 H       1  ZINC001039825450    0.1400
     28 H28       -10.8316   -0.7965   57.0709 H       1  ZINC001039825450    0.2000
     29 H29       -12.7872   -1.9823   55.6391 H       1  ZINC001039825450    0.2000
     30 H30        -8.3353    2.0212   51.9634 H       1  ZINC001039825450    0.4000
     31 H31        -6.0936    0.8973   53.0800 H       1  ZINC001039825450    0.0900
     32 H32        -6.3888   -0.0886   51.6278 H       1  ZINC001039825450    0.0900
     33 H33        -7.3101    1.9825   49.7728 H       1  ZINC001039825450    0.3800
     34 H34        -7.1104    3.7830   51.4190 H       1  ZINC001039825450    0.0900
     35 H35        -6.1785    3.3581   52.8939 H       1  ZINC001039825450    0.0900
     36 H36        -5.1398    4.4983   50.2416 H       1  ZINC001039825450    0.0800
     37 H37        -4.7684    5.0458   51.9052 H       1  ZINC001039825450    0.0800
     38 H38        -0.1716    4.1991   51.8861 H       1  ZINC001039825450    0.0900
     39 H39         0.3352    2.6654   52.6631 H       1  ZINC001039825450    0.1000
     40 H40         1.6462    3.0272   50.4545 H       1  ZINC001039825450    0.4400
     41 H41        -1.9805    1.4126   49.6381 H       1  ZINC001039825450    0.4400
     42 H42        -4.0567    1.3261   52.1811 H       1  ZINC001039825450    0.0900
     43 H43        -3.9830    1.3544   50.3971 H       1  ZINC001039825450    0.0900
@<TRIPOS>BOND
     1     1     2    2
     2     2     3    1
     3     2     9   am
     4     3     4    1
     5     3    26    1
     6     3    27    1
     7     4     8    1
     8     4     5    1
     9     5     6    2
    10     6     7    1
    11     6    28    1
    12     7     8    2
    13     7    29    1
    14     9    10    1
    15     9    30    1
    16    10    11    1
    17    10    31    1
    18    10    32    1
    19    11    25    1
    20    11    12    1
    21    11    13    1
    22    12    33    1
    23    13    14    1
    24    13    34    1
    25    13    35    1
    26    14    15    1
    27    14    36    1
    28    14    37    1
    29    15    16   am
    30    15    25    1
    31    16    17    2
    32    16    18    1
    33    18    19    1
    34    18    24    1
    35    18    20    1
    36    20    21    1
    37    20    38    1
    38    20    39    1
    39    21    22   am
    40    21    40    1
    41    22    23    2
    42    22    24   am
    43    24    41    1
    44    25    42    1
    45    25    43    1
@<TRIPOS>SUBSTRUCTURE
     1 ZINC001039825450        1 TEMP              0 ****  ****    0 ROOT


##########                                Name:    ZINC000503413572
##########                DOCK_Rotatable_Bonds:                   7
##########                         Heavy_Atoms:                  26
##########                    Molecular_Weight:             355.375
##########                DOCK_Rotatable_Bonds:                   7
##########                       Formal_Charge:        -1.71363e-07
##########                     HBond_Acceptors:                   9
##########                        HBond_Donors:                   1
##########                         Heavy_Atoms:                  26
##########                          Grid_Score:          -32.769081
##########                     Grid_vdw_energy:          -31.105635
##########                      Grid_es_energy:           -1.663446
##########           Internal_energy_repulsive:            9.032437

@<TRIPOS>MOLECULE
ZINC000503413572
 44 47 1 0 0
SMALL
USER_CHARGES


@<TRIPOS>ATOM
      1 C1         -9.1328    2.8959   52.2966 C.3     1  ZINC000503413572   -0.1200
      2 C2         -7.8655    2.1204   52.0447 C.ar    1  ZINC000503413572   -0.0200
      3 C3         -6.7631    2.7543   51.5067 C.ar    1  ZINC000503413572   -0.1400
      4 C4         -5.5979    2.0421   51.2754 C.ar    1  ZINC000503413572    0.1300
      5 F5         -4.5201    2.6640   50.7493 F       1  ZINC000503413572   -0.1300
      6 C6         -5.5361    0.6935   51.5832 C.ar    1  ZINC000503413572   -0.1400
      7 C7         -6.6369    0.0561   52.1216 C.ar    1  ZINC000503413572   -0.0700
      8 C8         -7.8037    0.7694   52.3588 C.ar    1  ZINC000503413572    0.1000
      9 N9         -8.9225    0.1238   52.9061 N.pl3   1  ZINC000503413572   -0.3100
     10 C10        -9.5145    0.4013   54.0878 C.2     1  ZINC000503413572    0.1100
     11 C11       -10.5615   -0.4666   54.2183 C.2     1  ZINC000503413572   -0.1000
     12 C12       -11.4935   -0.5280   55.3601 C.2     1  ZINC000503413572    0.6100
     13 O13       -11.1826   -0.0323   56.4259 O.2     1  ZINC000503413572   -0.5300
     14 N14       -12.6896   -1.1336   55.2218 N.am    1  ZINC000503413572   -0.7200
     15 C15       -13.6160   -1.1930   56.3552 C.3     1  ZINC000503413572    0.1100
     16 C16       -13.3989   -2.4982   57.1234 C.3     1  ZINC000503413572    0.1000
     17 N17       -14.1260   -2.4437   58.3941 N.pl3   1  ZINC000503413572   -0.4700
     18 C18       -15.3794   -2.8979   58.6360 C.2     1  ZINC000503413572    0.1500
     19 N19       -15.6447   -2.6553   59.8908 N.2     1  ZINC000503413572   -0.2900
     20 N20       -14.6362   -2.0796   60.4432 N.2     1  ZINC000503413572   -0.2900
     21 C21       -13.6794   -1.9340   59.5674 C.2     1  ZINC000503413572    0.2100
     22 C22       -12.3317   -1.3061   59.8131 C.3     1  ZINC000503413572   -0.1000
     23 C23       -12.1906    0.1929   59.5416 C.3     1  ZINC000503413572   -0.1500
     24 C24       -12.2117   -0.3251   60.9810 C.3     1  ZINC000503413572   -0.1600
     25 N25       -10.5990   -1.2551   53.1304 N.2     1  ZINC000503413572   -0.2000
     26 N26        -9.6453   -0.9299   52.3288 N.2     1  ZINC000503413572   -0.0400
     27 H27        -9.1500    3.2378   53.3314 H       1  ZINC000503413572    0.0900
     28 H28        -9.1709    3.7567   51.6288 H       1  ZINC000503413572    0.0800
     29 H29        -9.9943    2.2542   52.1116 H       1  ZINC000503413572    0.0700
     30 H30        -6.8096    3.8060   51.2655 H       1  ZINC000503413572    0.1500
     31 H31        -4.6269    0.1396   51.4019 H       1  ZINC000503413572    0.1500
     32 H32        -6.5885   -0.9959   52.3612 H       1  ZINC000503413572    0.1500
     33 H33        -9.2171    1.1624   54.7940 H       1  ZINC000503413572    0.2100
     34 H34       -12.9372   -1.5301   54.3718 H       1  ZINC000503413572    0.4100
     35 H35       -13.4341   -0.3469   57.0178 H       1  ZINC000503413572    0.0800
     36 H36       -14.6417   -1.1535   55.9886 H       1  ZINC000503413572    0.0800
     37 H37       -13.7671   -3.3349   56.5296 H       1  ZINC000503413572    0.1100
     38 H38       -12.3349   -2.6321   57.3191 H       1  ZINC000503413572    0.1100
     39 H39       -16.0373   -3.3721   57.9228 H       1  ZINC000503413572    0.2200
     40 H40       -11.4714   -1.9401   59.5979 H       1  ZINC000503413572    0.1200
     41 H41       -11.2374    0.5455   59.1476 H       1  ZINC000503413572    0.1100
     42 H42       -13.0726    0.7250   59.1852 H       1  ZINC000503413572    0.1100
     43 H43       -13.1076   -0.1338   61.5717 H       1  ZINC000503413572    0.1000
     44 H44       -11.2724   -0.3135   61.5340 H       1  ZINC000503413572    0.1100
@<TRIPOS>BOND
     1     1     2    1
     2     1    27    1
     3     1    28    1
     4     1    29    1
     5     2     8   ar
     6     2     3   ar
     7     3     4   ar
     8     3    30    1
     9     4     5    1
    10     4     6   ar
    11     6     7   ar
    12     6    31    1
    13     7     8   ar
    14     7    32    1
    15     8     9    1
    16     9    26    1
    17     9    10    1
    18    10    11    2
    19    10    33    1
    20    11    12    1
    21    11    25    1
    22    12    13    2
    23    12    14   am
    24    14    15    1
    25    14    34    1
    26    15    16    1
    27    15    35    1
    28    15    36    1
    29    16    17    1
    30    16    37    1
    31    16    38    1
    32    17    21    1
    33    17    18    1
    34    18    19    2
    35    18    39    1
    36    19    20    1
    37    20    21    2
    38    21    22    1
    39    22    24    1
    40    22    23    1
    41    22    40    1
    42    23    24    1
    43    23    41    1
    44    23    42    1
    45    24    43    1
    46    24    44    1
    47    25    26    2
@<TRIPOS>SUBSTRUCTURE
     1 ZINC000503413572        1 TEMP              0 ****  ****    0 ROOT


##########                                Name:    ZINC000432253027
##########                DOCK_Rotatable_Bonds:                   8
##########                         Heavy_Atoms:                  26
##########                    Molecular_Weight:             401.436
##########                DOCK_Rotatable_Bonds:                   8
##########                       Formal_Charge:         1.19209e-07
##########                     HBond_Acceptors:                  11
##########                        HBond_Donors:                   0
##########                         Heavy_Atoms:                  26
##########                          Grid_Score:          -32.762829
##########                     Grid_vdw_energy:          -33.968971
##########                      Grid_es_energy:            1.206143
##########           Internal_energy_repulsive:           10.799212

@<TRIPOS>MOLECULE
ZINC000432253027
 40 42 1 0 0
SMALL
USER_CHARGES


@<TRIPOS>ATOM
      1 C1         -1.7610    4.0791   54.2279 C.3     1  ZINC000432253027    0.0300
      2 O2         -2.5219    3.4063   53.2226 O.3     1  ZINC000432253027   -0.3100
      3 C3         -1.8310    2.8605   52.1885 C.ar    1  ZINC000432253027    0.1500
      4 C4         -0.4512    2.9718   52.1384 C.ar    1  ZINC000432253027   -0.2100
      5 C5          0.2510    2.4163   51.0851 C.ar    1  ZINC000432253027   -0.0600
      6 C6         -0.4171    1.7460   50.0755 C.ar    1  ZINC000432253027   -0.1600
      7 C7         -1.7912    1.6265   50.1110 C.ar    1  ZINC000432253027   -0.0300
      8 C8         -2.5102    2.1778   51.1716 C.ar    1  ZINC000432253027   -0.0600
      9 C9         -3.9821    2.0533   51.2155 C.2     1  ZINC000432253027    0.1200
     10 N10        -4.6402    1.0094   51.6322 N.2     1  ZINC000432253027   -0.4600
     11 C11        -5.9517    1.0787   51.5997 C.2     1  ZINC000432253027    0.0800
     12 C12        -6.8249   -0.0620   52.0552 C.3     1  ZINC000432253027   -0.0200
     13 S13        -8.3400    0.5975   52.8035 S.3     1  ZINC000432253027   -0.1700
     14 C14        -9.3926   -0.8719   52.9565 C.3     1  ZINC000432253027   -0.0300
     15 C15       -10.8252   -0.4456   53.1494 C.2     1  ZINC000432253027    0.2100
     16 N16       -11.7389   -0.3278   52.2170 N.2     1  ZINC000432253027   -0.2700
     17 N17       -12.8326    0.0576   52.7783 N.2     1  ZINC000432253027   -0.0500
     18 N18       -12.6405    0.1887   54.0445 N.2     1  ZINC000432253027   -0.0700
     19 N19       -11.4162   -0.1177   54.3133 N.pl3   1  ZINC000432253027   -0.3100
     20 C20       -10.7857   -0.1022   55.6355 C.3     1  ZINC000432253027    0.0700
     21 C21       -10.9789   -1.4625   56.3086 C.3     1  ZINC000432253027    0.4300
     22 F22       -10.3307   -1.4657   57.5483 F       1  ZINC000432253027   -0.1500
     23 F23       -12.3448   -1.7003   56.4959 F       1  ZINC000432253027   -0.1700
     24 F24       -10.4379   -2.4655   55.4970 F       1  ZINC000432253027   -0.1700
     25 C25        -6.4636    2.2239   51.1382 C.2     1  ZINC000432253027   -0.2500
     26 S26        -5.1285    3.2957   50.7199 S.3     1  ZINC000432253027    0.1600
     27 H27        -2.4331    4.4671   54.9933 H       1  ZINC000432253027    0.1000
     28 H28        -1.0592    3.3792   54.6816 H       1  ZINC000432253027    0.0600
     29 H29        -1.2104    4.9039   53.7756 H       1  ZINC000432253027    0.0600
     30 H30         0.0766    3.4936   52.9229 H       1  ZINC000432253027    0.1400
     31 H31         1.3267    2.5063   51.0498 H       1  ZINC000432253027    0.1300
     32 H32         0.1392    1.3150   49.2563 H       1  ZINC000432253027    0.1300
     33 H33        -2.3091    1.1029   49.3210 H       1  ZINC000432253027    0.1400
     34 H34        -7.0839   -0.6854   51.1993 H       1  ZINC000432253027    0.1000
     35 H35        -6.2869   -0.6602   52.7907 H       1  ZINC000432253027    0.1100
     36 H36        -9.3112   -1.4731   52.0510 H       1  ZINC000432253027    0.1100
     37 H37        -9.0704   -1.4618   53.8146 H       1  ZINC000432253027    0.1300
     38 H38        -9.7203    0.1017   55.5275 H       1  ZINC000432253027    0.1500
     39 H39       -11.2441    0.6745   56.2476 H       1  ZINC000432253027    0.1600
     40 H40        -7.5144    2.4542   51.0418 H       1  ZINC000432253027    0.1800
@<TRIPOS>BOND
     1     1     2    1
     2     1    27    1
     3     1    28    1
     4     1    29    1
     5     2     3    1
     6     3     8   ar
     7     3     4   ar
     8     4     5   ar
     9     4    30    1
    10     5     6   ar
    11     5    31    1
    12     6     7   ar
    13     6    32    1
    14     7     8   ar
    15     7    33    1
    16     8     9    1
    17     9    26    1
    18     9    10    2
    19    10    11    1
    20    11    12    1
    21    11    25    2
    22    12    13    1
    23    12    34    1
    24    12    35    1
    25    13    14    1
    26    14    15    1
    27    14    36    1
    28    14    37    1
    29    15    19    1
    30    15    16    2
    31    16    17    1
    32    17    18    2
    33    18    19    1
    34    19    20    1
    35    20    21    1
    36    20    38    1
    37    20    39    1
    38    21    22    1
    39    21    23    1
    40    21    24    1
    41    25    26    1
    42    25    40    1
@<TRIPOS>SUBSTRUCTURE
     1 ZINC000432253027        1 TEMP              0 ****  ****    0 ROOT


##########                                Name:    ZINC000151991096
##########                DOCK_Rotatable_Bonds:                   8
##########                         Heavy_Atoms:                  27
##########                    Molecular_Weight:             364.444
##########                DOCK_Rotatable_Bonds:                   8
##########                       Formal_Charge:          -0.0200004
##########                     HBond_Acceptors:                   5
##########                        HBond_Donors:                   1
##########                         Heavy_Atoms:                  27
##########                          Grid_Score:          -32.755947
##########                     Grid_vdw_energy:          -32.764164
##########                      Grid_es_energy:            0.008217
##########           Internal_energy_repulsive:           18.432051

@<TRIPOS>MOLECULE
ZINC000151991096
 51 53 1 0 0
SMALL
USER_CHARGES


@<TRIPOS>ATOM
      1 C1        -13.6233    0.7314   52.4508 C.3     1  ZINC000151991096   -0.1500
      2 C2        -12.1766    0.2393   52.3723 C.3     1  ZINC000151991096   -0.1300
      3 C3        -11.4956    0.4393   53.7276 C.3     1  ZINC000151991096    0.1400
      4 H4        -12.0265    1.2064   54.2914 H       1  ZINC000151991096    0.1000
      5 N5        -10.1076    0.8589   53.5195 N.am    1  ZINC000151991096   -0.7200
      6 C6         -9.2540    0.0575   52.8520 C.2     1  ZINC000151991096    0.5600
      7 O7         -9.6357   -1.0146   52.4239 O.2     1  ZINC000151991096   -0.5300
      8 C8         -7.8560    0.4812   52.6408 C.ar    1  ZINC000151991096   -0.1700
      9 C9         -6.9716   -0.3448   51.9422 C.ar    1  ZINC000151991096   -0.0500
     10 C10        -5.6682    0.0543   51.7469 C.ar    1  ZINC000151991096   -0.1600
     11 C11        -5.2320    1.2770   52.2437 C.ar    1  ZINC000151991096    0.1600
     12 O12        -3.9468    1.6670   52.0488 O.3     1  ZINC000151991096   -0.3000
     13 C13        -3.7415    2.9322   51.4169 C.3     1  ZINC000151991096    0.0900
     14 C14        -2.3556    3.4324   51.7330 C.ar    1  ZINC000151991096   -0.0500
     15 C15        -2.1592    4.3104   52.7784 C.ar    1  ZINC000151991096   -0.1000
     16 C16        -0.8872    4.7708   53.0699 C.ar    1  ZINC000151991096   -0.0900
     17 C17         0.1956    4.3550   52.3159 C.ar    1  ZINC000151991096   -0.1200
     18 C18         0.0135    3.4771   51.2672 C.ar    1  ZINC000151991096   -0.0700
     19 C19        -1.2661    3.0038   50.9714 C.ar    1  ZINC000151991096   -0.0200
     20 C20        -1.4625    2.0924   49.8845 C.1     1  ZINC000151991096    0.2400
     21 N21        -1.6182    1.3694   49.0222 N.1     1  ZINC000151991096   -0.4000
     22 C22        -6.1086    2.1015   52.9392 C.ar    1  ZINC000151991096   -0.2200
     23 C23        -7.4149    1.7119   53.1341 C.ar    1  ZINC000151991096   -0.0100
     24 C24       -11.5191   -0.8759   54.5092 C.3     1  ZINC000151991096    0.0700
     25 H25       -11.4640   -1.7173   53.8186 H       1  ZINC000151991096    0.1000
     26 C26       -12.8154   -0.9666   55.3427 C.3     1  ZINC000151991096   -0.1500
     27 C27       -12.3130   -1.6084   56.6646 C.3     1  ZINC000151991096   -0.1600
     28 C28       -10.8963   -0.9904   56.7719 C.3     1  ZINC000151991096    0.0500
     29 O29       -10.4135   -0.9204   55.4187 O.3     1  ZINC000151991096   -0.3700
     30 H30       -13.6333    1.7901   52.7098 H       1  ZINC000151991096    0.0500
     31 H31       -14.1084    0.5889   51.4853 H       1  ZINC000151991096    0.0500
     32 H32       -14.1586    0.1657   53.2134 H       1  ZINC000151991096    0.0600
     33 H33       -12.1666   -0.8195   52.1134 H       1  ZINC000151991096    0.0700
     34 H34       -11.6413    0.8050   51.6097 H       1  ZINC000151991096    0.0700
     35 H35        -9.8028    1.7138   53.8621 H       1  ZINC000151991096    0.4000
     36 H36        -7.3097   -1.2950   51.5562 H       1  ZINC000151991096    0.1300
     37 H37        -4.9839   -0.5836   51.2074 H       1  ZINC000151991096    0.1400
     38 H38        -3.8505    2.8214   50.3381 H       1  ZINC000151991096    0.0800
     39 H39        -4.4782    3.6460   51.7852 H       1  ZINC000151991096    0.0800
     40 H40        -3.0003    4.6394   53.3707 H       1  ZINC000151991096    0.1400
     41 H41        -0.7392    5.4581   53.8898 H       1  ZINC000151991096    0.1400
     42 H42         1.1855    4.7189   52.5484 H       1  ZINC000151991096    0.1400
     43 H43         0.8597    3.1537   50.6791 H       1  ZINC000151991096    0.1400
     44 H44        -5.7657    3.0506   53.3239 H       1  ZINC000151991096    0.1300
     45 H45        -8.0956    2.3533   53.6743 H       1  ZINC000151991096    0.1400
     46 H46       -13.2292    0.0251   55.5257 H       1  ZINC000151991096    0.0800
     47 H47       -13.5473   -1.6092   54.8531 H       1  ZINC000151991096    0.0900
     48 H48       -12.9364   -1.3105   57.5077 H       1  ZINC000151991096    0.0800
     49 H49       -12.2626   -2.6940   56.5800 H       1  ZINC000151991096    0.0800
     50 H50       -10.9507    0.0075   57.2069 H       1  ZINC000151991096    0.0600
     51 H51       -10.2485   -1.6304   57.3710 H       1  ZINC000151991096    0.0900
@<TRIPOS>BOND
     1     1     2    1
     2     1    30    1
     3     1    31    1
     4     1    32    1
     5     2     3    1
     6     2    33    1
     7     2    34    1
     8     3     4    1
     9     3     5    1
    10     3    24    1
    11     5     6   am
    12     5    35    1
    13     6     7    2
    14     6     8    1
    15     8    23   ar
    16     8     9   ar
    17     9    10   ar
    18     9    36    1
    19    10    11   ar
    20    10    37    1
    21    11    12    1
    22    11    22   ar
    23    12    13    1
    24    13    14    1
    25    13    38    1
    26    13    39    1
    27    14    19   ar
    28    14    15   ar
    29    15    16   ar
    30    15    40    1
    31    16    17   ar
    32    16    41    1
    33    17    18   ar
    34    17    42    1
    35    18    19   ar
    36    18    43    1
    37    19    20    1
    38    20    21    3
    39    22    23   ar
    40    22    44    1
    41    23    45    1
    42    24    25    1
    43    24    29    1
    44    24    26    1
    45    26    27    1
    46    26    46    1
    47    26    47    1
    48    27    28    1
    49    27    48    1
    50    27    49    1
    51    28    29    1
    52    28    50    1
    53    28    51    1
@<TRIPOS>SUBSTRUCTURE
     1 ZINC000151991096        1 TEMP              0 ****  ****    0 ROOT


##########                                Name:    ZINC000375302598
##########                DOCK_Rotatable_Bonds:                   8
##########                         Heavy_Atoms:                  27
##########                    Molecular_Weight:             368.479
##########                DOCK_Rotatable_Bonds:                   8
##########                       Formal_Charge:               -0.02
##########                     HBond_Acceptors:                   6
##########                        HBond_Donors:                   1
##########                         Heavy_Atoms:                  27
##########                          Grid_Score:          -32.755318
##########                     Grid_vdw_energy:          -33.114872
##########                      Grid_es_energy:            0.359553
##########           Internal_energy_repulsive:            7.069658

@<TRIPOS>MOLECULE
ZINC000375302598
 55 58 1 0 0
SMALL
USER_CHARGES


@<TRIPOS>ATOM
      1 C1          2.6568    1.9580   50.8087 C.3     1  ZINC000375302598   -0.1500
      2 C2          2.0571    2.6992   52.0054 C.3     1  ZINC000375302598   -0.0300
      3 C3          0.5531    2.6479   51.9258 C.2     1  ZINC000375302598    0.1800
      4 N4         -0.1605    1.9572   51.0696 N.2     1  ZINC000375302598   -0.4700
      5 C5         -1.4442    2.2175   51.3751 C.2     1  ZINC000375302598    0.1800
      6 C6         -2.6579    1.6597   50.6772 C.3     1  ZINC000375302598    0.1500
      7 N7         -3.8733    2.1675   51.3277 N.3     1  ZINC000375302598   -0.5300
      8 C8         -4.2869    3.4493   50.7427 C.3     1  ZINC000375302598    0.0500
      9 C9         -5.4650    4.0175   51.5372 C.3     1  ZINC000375302598   -0.1100
     10 C10        -6.6265    3.0205   51.5017 C.3     1  ZINC000375302598   -0.1300
     11 C11        -6.1556    1.6797   52.0718 C.3     1  ZINC000375302598    0.1500
     12 H12        -5.8618    1.8102   53.1133 H       1  ZINC000375302598    0.1000
     13 N13        -7.2448    0.7035   51.9894 N.am    1  ZINC000375302598   -0.7300
     14 C14        -8.1866    0.6617   52.9527 C.2     1  ZINC000375302598    0.5200
     15 O15        -8.1314    1.4312   53.8885 O.2     1  ZINC000375302598   -0.5300
     16 C16        -9.3080   -0.3413   52.8670 C.3     1  ZINC000375302598   -0.1100
     17 C17       -10.6510    0.3904   52.9093 C.3     1  ZINC000375302598   -0.1200
     18 H18       -10.7493    1.2325   52.2242 H       1  ZINC000375302598    0.1200
     19 C19       -11.3562    0.4949   54.2630 C.3     1  ZINC000375302598   -0.1700
     20 C20       -11.9024   -0.4453   53.1856 C.3     1  ZINC000375302598   -0.1100
     21 H21       -11.7690   -1.5164   53.3376 H       1  ZINC000375302598    0.1100
     22 C22       -13.1771   -0.0413   52.4907 C.ar    1  ZINC000375302598   -0.0500
     23 C23       -13.3290   -0.2725   51.1362 C.ar    1  ZINC000375302598   -0.1200
     24 C24       -14.4982    0.0980   50.4987 C.ar    1  ZINC000375302598   -0.1200
     25 C25       -15.5158    0.6993   51.2156 C.ar    1  ZINC000375302598   -0.1300
     26 C26       -15.3642    0.9297   52.5701 C.ar    1  ZINC000375302598   -0.1200
     27 C27       -14.1966    0.5552   53.2085 C.ar    1  ZINC000375302598   -0.1100
     28 C28        -4.9574    1.1792   51.2619 C.3     1  ZINC000375302598    0.0500
     29 N29        -1.4457    3.0380   52.3827 N.2     1  ZINC000375302598   -0.3800
     30 O30        -0.3083    3.2932   52.7180 O.3     1  ZINC000375302598    0.0800
     31 H31         2.3255    2.4318   49.8846 H       1  ZINC000375302598    0.0600
     32 H32         3.7446    1.9950   50.8663 H       1  ZINC000375302598    0.0800
     33 H33         2.3274    0.9190   50.8226 H       1  ZINC000375302598    0.0600
     34 H34         2.3883    2.2253   52.9294 H       1  ZINC000375302598    0.1100
     35 H35         2.3865    3.7382   51.9914 H       1  ZINC000375302598    0.1000
     36 H36        -2.6496    1.9677   49.6317 H       1  ZINC000375302598    0.0700
     37 H37        -2.6423    0.5713   50.7355 H       1  ZINC000375302598    0.1100
     38 H38        -3.4530    4.1505   50.7780 H       1  ZINC000375302598    0.0800
     39 H39        -4.5881    3.2952   49.7066 H       1  ZINC000375302598    0.0400
     40 H40        -5.1603    4.1848   52.5703 H       1  ZINC000375302598    0.0700
     41 H41        -5.7818    4.9614   51.0933 H       1  ZINC000375302598    0.0700
     42 H42        -7.4524    3.4018   52.1023 H       1  ZINC000375302598    0.0700
     43 H43        -6.9570    2.8827   50.4722 H       1  ZINC000375302598    0.0600
     44 H44        -7.2883    0.0873   51.2416 H       1  ZINC000375302598    0.4000
     45 H45        -9.2268   -0.8982   51.9335 H       1  ZINC000375302598    0.1000
     46 H46        -9.2435   -1.0313   53.7084 H       1  ZINC000375302598    0.1000
     47 H47       -10.8634    0.0424   55.1235 H       1  ZINC000375302598    0.1000
     48 H48       -11.9189    1.4056   54.4684 H       1  ZINC000375302598    0.1000
     49 H49       -12.5340   -0.7424   50.5761 H       1  ZINC000375302598    0.1200
     50 H50       -14.6166   -0.0821   49.4404 H       1  ZINC000375302598    0.1200
     51 H51       -16.4290    0.9894   50.7173 H       1  ZINC000375302598    0.1200
     52 H52       -16.1590    1.3998   53.1301 H       1  ZINC000375302598    0.1200
     53 H53       -14.0783    0.7353   54.2668 H       1  ZINC000375302598    0.1200
     54 H54        -5.2555    1.0358   50.2233 H       1  ZINC000375302598    0.0400
     55 H55        -4.6107    0.2316   51.6741 H       1  ZINC000375302598    0.0900
@<TRIPOS>BOND
     1     1     2    1
     2     1    31    1
     3     1    32    1
     4     1    33    1
     5     2     3    1
     6     2    34    1
     7     2    35    1
     8     3    30    1
     9     3     4    2
    10     4     5    1
    11     5     6    1
    12     5    29    2
    13     6     7    1
    14     6    36    1
    15     6    37    1
    16     7    28    1
    17     7     8    1
    18     8     9    1
    19     8    38    1
    20     8    39    1
    21     9    10    1
    22     9    40    1
    23     9    41    1
    24    10    11    1
    25    10    42    1
    26    10    43    1
    27    11    12    1
    28    11    13    1
    29    11    28    1
    30    13    14   am
    31    13    44    1
    32    14    15    2
    33    14    16    1
    34    16    17    1
    35    16    45    1
    36    16    46    1
    37    17    18    1
    38    17    20    1
    39    17    19    1
    40    19    20    1
    41    19    47    1
    42    19    48    1
    43    20    21    1
    44    20    22    1
    45    22    27   ar
    46    22    23   ar
    47    23    24   ar
    48    23    49    1
    49    24    25   ar
    50    24    50    1
    51    25    26   ar
    52    25    51    1
    53    26    27   ar
    54    26    52    1
    55    27    53    1
    56    28    54    1
    57    28    55    1
    58    29    30    1
@<TRIPOS>SUBSTRUCTURE
     1 ZINC000375302598        1 TEMP              0 ****  ****    0 ROOT


##########                                Name:    ZINC001143596311
##########                DOCK_Rotatable_Bonds:                   9
##########                         Heavy_Atoms:                  21
##########                    Molecular_Weight:             335.811
##########                DOCK_Rotatable_Bonds:                   9
##########                       Formal_Charge:          0.00999959
##########                     HBond_Acceptors:                   9
##########                        HBond_Donors:                   3
##########                         Heavy_Atoms:                  21
##########                          Grid_Score:          -32.672230
##########                     Grid_vdw_energy:          -31.179955
##########                      Grid_es_energy:           -1.492274
##########           Internal_energy_repulsive:           10.222903

@<TRIPOS>MOLECULE
ZINC001143596311
 39 39 1 0 0
SMALL
USER_CHARGES


@<TRIPOS>ATOM
      1 C1        -10.4093   -0.6662   52.9932 C.3     1  ZINC001143596311    0.0400
      2 O2        -10.1106    0.6982   53.2956 O.3     1  ZINC001143596311   -0.2600
      3 N3         -8.9756    1.2388   52.5473 N.3     1  ZINC001143596311   -0.3700
      4 C4         -9.0982    2.6935   52.3833 C.3     1  ZINC001143596311    0.0000
      5 C5         -7.7039    0.8872   53.1930 C.3     1  ZINC001143596311    0.0400
      6 C6         -6.9806   -0.1683   52.3541 C.3     1  ZINC001143596311   -0.1300
      7 C7         -6.2601    0.5125   51.1887 C.3     1  ZINC001143596311    0.1200
      8 N8         -4.9423    0.9741   51.6319 N.am    1  ZINC001143596311   -0.7200
      9 C9         -4.2931    1.9280   50.9355 C.2     1  ZINC001143596311    0.5600
     10 O10        -4.8017    2.4065   49.9405 O.2     1  ZINC001143596311   -0.5200
     11 C11        -2.9629    2.3924   51.3817 C.ar    1  ZINC001143596311   -0.1500
     12 C12        -2.8354    3.1174   52.5678 C.ar    1  ZINC001143596311   -0.0200
     13 C13        -1.5915    3.5481   52.9791 C.ar    1  ZINC001143596311   -0.1300
     14 C14        -0.4702    3.2631   52.2177 C.ar    1  ZINC001143596311    0.0700
     15 Cl15        1.0923    3.8086   52.7418 Cl      1  ZINC001143596311   -0.0200
     16 C16        -0.5905    2.5440   51.0397 C.ar    1  ZINC001143596311   -0.6800
     17 S17         0.8418    2.1857   50.0781 S.o2    1  ZINC001143596311    2.7000
     18 N18         1.7926    1.1690   50.9750 N.am    1  ZINC001143596311   -1.2500
     19 O19         0.3954    1.4337   48.9581 O.2     1  ZINC001143596311   -0.9400
     20 O20         1.5604    3.4058   49.9586 O.2     1  ZINC001143596311   -0.9500
     21 C21        -1.8280    2.1028   50.6215 C.ar    1  ZINC001143596311    0.0500
     22 H22       -10.6485   -0.7596   51.9339 H       1  ZINC001143596311    0.0400
     23 H23        -9.5447   -1.2877   53.2266 H       1  ZINC001143596311    0.0500
     24 H24       -11.2622   -0.9920   53.5885 H       1  ZINC001143596311    0.0900
     25 H25        -9.1285    3.1685   53.3639 H       1  ZINC001143596311    0.0400
     26 H26        -8.2416    3.0694   51.8238 H       1  ZINC001143596311    0.0900
     27 H27       -10.0154    2.9219   51.8404 H       1  ZINC001143596311    0.0800
     28 H28        -7.0795    1.7769   53.2745 H       1  ZINC001143596311    0.0500
     29 H29        -7.8998    0.4885   54.1884 H       1  ZINC001143596311    0.0900
     30 H30        -6.2532   -0.6905   52.9756 H       1  ZINC001143596311    0.0800
     31 H31        -7.7059   -0.8829   51.9652 H       1  ZINC001143596311    0.0800
     32 H32        -6.1401   -0.1980   50.3708 H       1  ZINC001143596311    0.0800
     33 H33        -6.8473    1.3646   50.8463 H       1  ZINC001143596311    0.0800
     34 H34        -4.5370    0.5931   52.4265 H       1  ZINC001143596311    0.4000
     35 H35        -3.7091    3.3409   53.1620 H       1  ZINC001143596311    0.1500
     36 H36        -1.4915    4.1091   53.8965 H       1  ZINC001143596311    0.1600
     37 H37         2.6361    0.8513   50.6163 H       1  ZINC001143596311    0.4200
     38 H38         1.5063    0.8912   51.8592 H       1  ZINC001143596311    0.4200
     39 H39        -1.9206    1.5423   49.7029 H       1  ZINC001143596311    0.1700
@<TRIPOS>BOND
     1     1     2    1
     2     1    22    1
     3     1    23    1
     4     1    24    1
     5     2     3    1
     6     3     4    1
     7     3     5    1
     8     4    25    1
     9     4    26    1
    10     4    27    1
    11     5     6    1
    12     5    28    1
    13     5    29    1
    14     6     7    1
    15     6    30    1
    16     6    31    1
    17     7     8    1
    18     7    32    1
    19     7    33    1
    20     8     9   am
    21     8    34    1
    22     9    10    2
    23     9    11    1
    24    11    21   ar
    25    11    12   ar
    26    12    13   ar
    27    12    35    1
    28    13    14   ar
    29    13    36    1
    30    14    15    1
    31    14    16   ar
    32    16    17    1
    33    16    21   ar
    34    17    18   am
    35    17    19    2
    36    17    20    2
    37    18    37    1
    38    18    38    1
    39    21    39    1
@<TRIPOS>SUBSTRUCTURE
     1 ZINC001143596311        1 TEMP              0 ****  ****    0 ROOT


##########                                Name:    ZINC001015666108
##########                DOCK_Rotatable_Bonds:                   7
##########                         Heavy_Atoms:                  25
##########                    Molecular_Weight:             346.429
##########                DOCK_Rotatable_Bonds:                   7
##########                       Formal_Charge:          -0.0199997
##########                     HBond_Acceptors:                   7
##########                        HBond_Donors:                   1
##########                         Heavy_Atoms:                  25
##########                          Grid_Score:          -32.671513
##########                     Grid_vdw_energy:          -32.403973
##########                      Grid_es_energy:           -0.267541
##########           Internal_energy_repulsive:           16.277523

@<TRIPOS>MOLECULE
ZINC001015666108
 51 53 1 0 0
SMALL
USER_CHARGES


@<TRIPOS>ATOM
      1 C1          0.9415    1.8678   50.6103 C.3     1  ZINC001015666108   -0.1400
      2 C2         -0.5114    2.3000   50.4021 C.3     1  ZINC001015666108   -0.0700
      3 C3         -1.0529    2.8759   51.6851 C.2     1  ZINC001015666108   -0.0700
      4 C4         -2.3495    2.8392   52.1117 C.2     1  ZINC001015666108   -0.0900
      5 C5         -3.4748    2.2277   51.3970 C.2     1  ZINC001015666108    0.6100
      6 O6         -3.2978    1.7169   50.3067 O.2     1  ZINC001015666108   -0.5100
      7 N7         -4.7049    2.2315   51.9477 N.am    1  ZINC001015666108   -0.7200
      8 C8         -5.8293    1.6223   51.2331 C.3     1  ZINC001015666108    0.1400
      9 H9         -5.7233    1.7777   50.1594 H       1  ZINC001015666108    0.1100
     10 C10        -5.9119    0.1117   51.5510 C.3     1  ZINC001015666108   -0.1300
     11 C11        -6.9752    0.0521   52.6763 C.3     1  ZINC001015666108    0.0300
     12 N12        -7.9589    1.0880   52.2698 N.3     1  ZINC001015666108   -0.5100
     13 C13        -8.7719    1.5200   53.4144 C.3     1  ZINC001015666108    0.1700
     14 H14        -8.1187    1.8882   54.2056 H       1  ZINC001015666108    0.0900
     15 C15        -9.7195    2.6376   52.9741 C.3     1  ZINC001015666108   -0.1500
     16 C16        -9.5755    0.3535   53.9287 C.2     1  ZINC001015666108    0.1900
     17 N17       -10.1523    0.2594   55.1024 N.2     1  ZINC001015666108   -0.4800
     18 C18       -10.7490   -0.9458   55.1171 C.2     1  ZINC001015666108    0.1800
     19 C19       -11.5493   -1.5311   56.2520 C.3     1  ZINC001015666108    0.0000
     20 C20       -10.5980   -2.0667   57.3239 C.3     1  ZINC001015666108   -0.1500
     21 C21       -12.4426   -0.4471   56.8584 C.3     1  ZINC001015666108   -0.1500
     22 N22       -10.5090   -1.5127   53.9728 N.2     1  ZINC001015666108   -0.3800
     23 O23        -9.8412   -0.7804   53.2732 O.3     1  ZINC001015666108    0.1000
     24 C24        -7.1617    2.2136   51.7297 C.3     1  ZINC001015666108    0.0300
     25 O25        -2.4141    3.4639   53.3057 O.3     1  ZINC001015666108   -0.1700
     26 C26        -1.1935    3.8959   53.6480 C.2     1  ZINC001015666108    0.0000
     27 C27        -0.3211    3.5486   52.6761 C.2     1  ZINC001015666108   -0.2200
     28 H28         1.3332    1.4513   49.6823 H       1  ZINC001015666108    0.0600
     29 H29         1.5392    2.7314   50.9017 H       1  ZINC001015666108    0.0600
     30 H30         0.9871    1.1128   51.3952 H       1  ZINC001015666108    0.0500
     31 H31        -0.5570    3.0550   49.6172 H       1  ZINC001015666108    0.0900
     32 H32        -1.1091    1.4363   50.1107 H       1  ZINC001015666108    0.0700
     33 H33        -4.8458    2.6377   52.8173 H       1  ZINC001015666108    0.4000
     34 H34        -6.2437   -0.4489   50.6768 H       1  ZINC001015666108    0.0900
     35 H35        -4.9515   -0.2606   51.9075 H       1  ZINC001015666108    0.0800
     36 H36        -7.4442   -0.9313   52.7108 H       1  ZINC001015666108    0.0800
     37 H37        -6.5301    0.3011   53.6396 H       1  ZINC001015666108    0.0500
     38 H38       -10.3726    2.2695   52.1829 H       1  ZINC001015666108    0.0800
     39 H39       -10.3227    2.9582   53.8234 H       1  ZINC001015666108    0.0700
     40 H40        -9.1383    3.4814   52.6022 H       1  ZINC001015666108    0.0800
     41 H41       -12.1695   -2.3454   55.8771 H       1  ZINC001015666108    0.1000
     42 H42        -9.9776   -1.2526   57.6987 H       1  ZINC001015666108    0.0600
     43 H43       -11.1767   -2.4901   58.1447 H       1  ZINC001015666108    0.0700
     44 H44        -9.9615   -2.8390   56.8919 H       1  ZINC001015666108    0.0600
     45 H45       -11.8223    0.3671   57.2332 H       1  ZINC001015666108    0.0600
     46 H46       -13.1204   -0.0656   56.0948 H       1  ZINC001015666108    0.0600
     47 H47       -13.0214   -0.8705   57.6793 H       1  ZINC001015666108    0.0700
     48 H48        -6.9732    2.9455   52.5150 H       1  ZINC001015666108    0.0600
     49 H49        -7.6940    2.6820   50.9019 H       1  ZINC001015666108    0.1000
     50 H50        -0.9463    4.4300   54.5535 H       1  ZINC001015666108    0.2100
     51 H51         0.7388    3.7556   52.6615 H       1  ZINC001015666108    0.1600
@<TRIPOS>BOND
     1     1     2    1
     2     1    28    1
     3     1    29    1
     4     1    30    1
     5     2     3    1
     6     2    31    1
     7     2    32    1
     8     3    27    1
     9     3     4    2
    10     4     5    1
    11     4    25    1
    12     5     6    2
    13     5     7   am
    14     7     8    1
    15     7    33    1
    16     8     9    1
    17     8    24    1
    18     8    10    1
    19    10    11    1
    20    10    34    1
    21    10    35    1
    22    11    12    1
    23    11    36    1
    24    11    37    1
    25    12    13    1
    26    12    24    1
    27    13    14    1
    28    13    15    1
    29    13    16    1
    30    15    38    1
    31    15    39    1
    32    15    40    1
    33    16    23    1
    34    16    17    2
    35    17    18    1
    36    18    19    1
    37    18    22    2
    38    19    20    1
    39    19    21    1
    40    19    41    1
    41    20    42    1
    42    20    43    1
    43    20    44    1
    44    21    45    1
    45    21    46    1
    46    21    47    1
    47    22    23    1
    48    24    48    1
    49    24    49    1
    50    25    26    1
    51    26    27    2
    52    26    50    1
    53    27    51    1
@<TRIPOS>SUBSTRUCTURE
     1 ZINC001015666108        1 TEMP              0 ****  ****    0 ROOT


##########                                Name:    ZINC000963156778
##########                DOCK_Rotatable_Bonds:                   6
##########                         Heavy_Atoms:                  24
##########                    Molecular_Weight:             349.414
##########                DOCK_Rotatable_Bonds:                   6
##########                       Formal_Charge:         -0.00999984
##########                     HBond_Acceptors:                   9
##########                        HBond_Donors:                   2
##########                         Heavy_Atoms:                  24
##########                          Grid_Score:          -32.641502
##########                     Grid_vdw_energy:          -31.299892
##########                      Grid_es_energy:           -1.341611
##########           Internal_energy_repulsive:            7.567953

@<TRIPOS>MOLECULE
ZINC000963156778
 43 46 1 0 0
SMALL
USER_CHARGES


@<TRIPOS>ATOM
      1 C1        -14.3878    0.4190   61.5617 C.3     1  ZINC000963156778   -0.0800
      2 C2        -15.0283   -0.7720   60.8965 C.2     1  ZINC000963156778    0.0300
      3 C3        -14.3434   -1.6883   60.1733 C.2     1  ZINC000963156778   -0.2600
      4 C4        -12.8646   -1.7238   59.8855 C.3     1  ZINC000963156778    0.1300
      5 N5        -12.6435   -2.2138   58.5183 N.3     1  ZINC000963156778   -0.5000
      6 C6        -11.1924   -2.3379   58.2253 C.3     1  ZINC000963156778    0.0600
      7 C7        -11.1039   -2.3206   56.6842 C.3     1  ZINC000963156778   -0.1700
      8 H8        -10.7419   -3.2217   56.1891 H       1  ZINC000963156778    0.1200
      9 C9        -12.3824   -1.5947   56.2174 C.3     1  ZINC000963156778   -0.1700
     10 H10       -12.9643   -1.9473   55.3658 H       1  ZINC000963156778    0.1200
     11 C11       -13.1358   -1.2343   57.5157 C.3     1  ZINC000963156778    0.0600
     12 C12       -10.9619   -0.9673   55.9849 C.3     1  ZINC000963156778    0.1200
     13 H13       -10.6864   -0.1076   56.5958 H       1  ZINC000963156778    0.1400
     14 N14       -10.4428   -0.9603   54.6150 N.am    1  ZINC000963156778   -0.7000
     15 C15        -9.6582    0.0526   54.1968 C.2     1  ZINC000963156778    0.5100
     16 O16        -9.3808    0.9576   54.9550 O.2     1  ZINC000963156778   -0.5000
     17 C17        -9.1256    0.0606   52.7870 C.3     1  ZINC000963156778   -0.1300
     18 C18        -7.6620    0.5062   52.7973 C.3     1  ZINC000963156778   -0.1100
     19 H19        -7.1603    0.1506   53.6974 H       1  ZINC000963156778    0.1300
     20 C20        -7.5613    2.0414   52.6903 C.3     1  ZINC000963156778   -0.1600
     21 C21        -6.8005    2.2578   51.4004 C.2     1  ZINC000963156778    0.5300
     22 O22        -6.5005    3.3361   50.9345 O.2     1  ZINC000963156778   -0.4800
     23 N23        -6.5107    1.0698   50.8553 N.am    1  ZINC000963156778   -0.6900
     24 C24        -6.9465    0.0130   51.5587 C.2     1  ZINC000963156778    0.5200
     25 O25        -6.7927   -1.1487   51.2483 O.2     1  ZINC000963156778   -0.4500
     26 S26       -15.5484   -2.8042   59.6584 S.3     1  ZINC000963156778    0.4500
     27 N27       -16.7481   -2.0758   60.3509 N.2     1  ZINC000963156778   -0.2900
     28 N28       -16.3166   -1.0404   60.9586 N.2     1  ZINC000963156778   -0.2400
     29 H29       -14.0765    0.1478   62.5705 H       1  ZINC000963156778    0.0900
     30 H30       -13.5178    0.7329   60.9851 H       1  ZINC000963156778    0.0800
     31 H31       -15.1060    1.2375   61.6108 H       1  ZINC000963156778    0.0800
     32 H32       -12.4511   -0.7200   59.9831 H       1  ZINC000963156778    0.1000
     33 H33       -12.3724   -2.3899   60.5942 H       1  ZINC000963156778    0.0700
     34 H34       -10.6459   -1.4942   58.6470 H       1  ZINC000963156778    0.0600
     35 H35       -10.8043   -3.2777   58.6180 H       1  ZINC000963156778    0.0800
     36 H36       -14.2111   -1.3434   57.3740 H       1  ZINC000963156778    0.1000
     37 H37       -12.8935   -0.2180   57.8262 H       1  ZINC000963156778    0.0500
     38 H38       -10.6638   -1.6847   54.0089 H       1  ZINC000963156778    0.4000
     39 H39        -9.1972   -0.9422   52.3659 H       1  ZINC000963156778    0.1000
     40 H40        -9.7117    0.7518   52.1812 H       1  ZINC000963156778    0.1200
     41 H41        -8.5539    2.4877   52.6296 H       1  ZINC000963156778    0.1200
     42 H42        -7.0071    2.4494   53.5357 H       1  ZINC000963156778    0.1300
     43 H43        -6.0242    0.9797   50.0210 H       1  ZINC000963156778    0.4200
@<TRIPOS>BOND
     1     1     2    1
     2     1    29    1
     3     1    30    1
     4     1    31    1
     5     2    28    1
     6     2     3    2
     7     3     4    1
     8     3    26    1
     9     4     5    1
    10     4    32    1
    11     4    33    1
    12     5    11    1
    13     5     6    1
    14     6     7    1
    15     6    34    1
    16     6    35    1
    17     7     8    1
    18     7    12    1
    19     7     9    1
    20     9    10    1
    21     9    11    1
    22     9    12    1
    23    11    36    1
    24    11    37    1
    25    12    13    1
    26    12    14    1
    27    14    15   am
    28    14    38    1
    29    15    16    2
    30    15    17    1
    31    17    18    1
    32    17    39    1
    33    17    40    1
    34    18    19    1
    35    18    24    1
    36    18    20    1
    37    20    21    1
    38    20    41    1
    39    20    42    1
    40    21    22    2
    41    21    23   am
    42    23    24   am
    43    23    43    1
    44    24    25    2
    45    26    27    1
    46    27    28    2
@<TRIPOS>SUBSTRUCTURE
     1 ZINC000963156778        1 TEMP              0 ****  ****    0 ROOT


##########                                Name:    ZINC001060578637
##########                DOCK_Rotatable_Bonds:                  10
##########                         Heavy_Atoms:                  25
##########                    Molecular_Weight:             345.401
##########                DOCK_Rotatable_Bonds:                  10
##########                       Formal_Charge:          -0.0400001
##########                     HBond_Acceptors:                   8
##########                        HBond_Donors:                   3
##########                         Heavy_Atoms:                  25
##########                          Grid_Score:          -32.629448
##########                     Grid_vdw_energy:          -32.181664
##########                      Grid_es_energy:           -0.447784
##########           Internal_energy_repulsive:           19.334263

@<TRIPOS>MOLECULE
ZINC001060578637
 48 49 1 0 0
SMALL
USER_CHARGES


@<TRIPOS>ATOM
      1 C1         -1.8474    1.9038   49.9850 C.3     1  ZINC001060578637   -0.1500
      2 C2         -2.6976    2.8531   50.8315 C.3     1  ZINC001060578637   -0.1300
      3 C3         -4.1783    2.6284   50.5181 C.3     1  ZINC001060578637    0.0700
      4 H4         -4.2912    2.3655   49.4663 H       1  ZINC001060578637    0.0900
      5 O5         -4.9098    3.8253   50.7910 O.3     1  ZINC001060578637   -0.3600
      6 C6         -4.7732    4.2967   52.1332 C.3     1  ZINC001060578637    0.0300
      7 C7         -4.7091    1.5087   51.3757 C.2     1  ZINC001060578637    0.5000
      8 O8         -4.0458    0.5075   51.5445 O.2     1  ZINC001060578637   -0.5200
      9 N9         -5.9209    1.6200   51.9550 N.am    1  ZINC001060578637   -0.7300
     10 C10        -6.4363    0.5322   52.7901 C.3     1  ZINC001060578637    0.1600
     11 C11        -7.9429    0.5556   52.7720 C.ar    1  ZINC001060578637   -0.1100
     12 C12        -8.6235    1.6458   53.2811 C.ar    1  ZINC001060578637   -0.0900
     13 C13       -10.0056    1.6672   53.2645 C.ar    1  ZINC001060578637   -0.1100
     14 C14       -10.7071    0.5985   52.7384 C.ar    1  ZINC001060578637   -0.0900
     15 C15       -12.2138    0.6215   52.7207 C.3     1  ZINC001060578637    0.1800
     16 H16       -12.5619    1.6535   52.7675 H       1  ZINC001060578637    0.1000
     17 C17       -12.7500   -0.1526   53.9266 C.3     1  ZINC001060578637   -0.1600
     18 N18       -12.6974   -0.0015   51.4862 N.am    1  ZINC001060578637   -0.7000
     19 C19       -13.6057    0.6355   50.7207 C.2     1  ZINC001060578637    0.6100
     20 O20       -14.0250    1.7266   51.0558 O.2     1  ZINC001060578637   -0.5300
     21 C21       -14.0910    0.0092   49.4773 C.2     1  ZINC001060578637    0.1200
     22 N22       -13.7480   -1.1720   49.0096 N.2     1  ZINC001060578637   -0.2400
     23 N23       -14.3676   -1.3914   47.9045 N.2     1  ZINC001060578637   -0.2900
     24 C24       -15.1335   -0.3693   47.6105 C.2     1  ZINC001060578637    0.1900
     25 N25       -14.9902    0.5441   48.5911 N.pl3   1  ZINC001060578637   -0.5500
     26 C26       -10.0265   -0.4911   52.2281 C.ar    1  ZINC001060578637   -0.1100
     27 C27        -8.6444   -0.5108   52.2412 C.ar    1  ZINC001060578637   -0.0900
     28 H28        -0.7945    2.0421   50.2307 H       1  ZINC001060578637    0.0600
     29 H29        -2.1367    0.8737   50.1928 H       1  ZINC001060578637    0.0500
     30 H30        -2.0051    2.1193   48.9282 H       1  ZINC001060578637    0.0600
     31 H31        -2.5165    2.6584   51.8885 H       1  ZINC001060578637    0.0800
     32 H32        -2.4299    3.8843   50.6009 H       1  ZINC001060578637    0.0800
     33 H33        -5.2946    5.2481   52.2390 H       1  ZINC001060578637    0.0900
     34 H34        -5.2040    3.5680   52.8198 H       1  ZINC001060578637    0.0500
     35 H35        -3.7168    4.4337   52.3643 H       1  ZINC001060578637    0.0400
     36 H36        -6.4519    2.4203   51.8188 H       1  ZINC001060578637    0.4000
     37 H37        -6.0830   -0.4229   52.4015 H       1  ZINC001060578637    0.0800
     38 H38        -6.0832    0.6612   53.8132 H       1  ZINC001060578637    0.0800
     39 H39        -8.0755    2.4807   53.6920 H       1  ZINC001060578637    0.1300
     40 H40       -10.5373    2.5186   53.6628 H       1  ZINC001060578637    0.1300
     41 H41       -12.4018   -1.1844   53.8798 H       1  ZINC001060578637    0.0600
     42 H42       -12.3902    0.3109   54.8452 H       1  ZINC001060578637    0.0700
     43 H43       -13.8397   -0.1359   53.9137 H       1  ZINC001060578637    0.0700
     44 H44       -12.3638   -0.8724   51.2195 H       1  ZINC001060578637    0.4100
     45 H45       -15.7680   -0.2773   46.7413 H       1  ZINC001060578637    0.2300
     46 H46       -15.4293    1.4067   48.6541 H       1  ZINC001060578637    0.4400
     47 H47       -10.5746   -1.3258   51.8168 H       1  ZINC001060578637    0.1300
     48 H48        -8.1127   -1.3622   51.8425 H       1  ZINC001060578637    0.1300
@<TRIPOS>BOND
     1     1     2    1
     2     1    28    1
     3     1    29    1
     4     1    30    1
     5     2     3    1
     6     2    31    1
     7     2    32    1
     8     3     4    1
     9     3     5    1
    10     3     7    1
    11     5     6    1
    12     6    33    1
    13     6    34    1
    14     6    35    1
    15     7     8    2
    16     7     9   am
    17     9    10    1
    18     9    36    1
    19    10    11    1
    20    10    37    1
    21    10    38    1
    22    11    27   ar
    23    11    12   ar
    24    12    13   ar
    25    12    39    1
    26    13    14   ar
    27    13    40    1
    28    14    15    1
    29    14    26   ar
    30    15    16    1
    31    15    17    1
    32    15    18    1
    33    17    41    1
    34    17    42    1
    35    17    43    1
    36    18    19   am
    37    18    44    1
    38    19    20    2
    39    19    21    1
    40    21    25    1
    41    21    22    2
    42    22    23    1
    43    23    24    2
    44    24    25    1
    45    24    45    1
    46    25    46    1
    47    26    27   ar
    48    26    47    1
    49    27    48    1
@<TRIPOS>SUBSTRUCTURE
     1 ZINC001060578637        1 TEMP              0 ****  ****    0 ROOT


##########                                Name:    ZINC001284642199
##########                DOCK_Rotatable_Bonds:                   8
##########                         Heavy_Atoms:                  25
##########                    Molecular_Weight:             346.516
##########                DOCK_Rotatable_Bonds:                   8
##########                       Formal_Charge:         -3.8743e-07
##########                     HBond_Acceptors:                   5
##########                        HBond_Donors:                   2
##########                         Heavy_Atoms:                  25
##########                          Grid_Score:          -32.628567
##########                     Grid_vdw_energy:          -31.664066
##########                      Grid_es_energy:           -0.964502
##########           Internal_energy_repulsive:           19.629658

@<TRIPOS>MOLECULE
ZINC001284642199
 59 60 1 0 0
SMALL
USER_CHARGES


@<TRIPOS>ATOM
      1 C1        -16.7155   -3.7495   48.1538 C.3     1  ZINC001284642199   -0.1100
      2 C2        -15.8966   -2.6387   48.7593 C.ar    1  ZINC001284642199   -0.1900
      3 C3        -14.8181   -2.0988   48.0765 C.ar    1  ZINC001284642199    0.1500
      4 N4        -14.1224   -1.1240   48.6396 N.ar    1  ZINC001284642199   -0.4900
      5 C5        -14.4443   -0.6672   49.8332 C.ar    1  ZINC001284642199    0.3100
      6 C6        -13.6254    0.4437   50.4386 C.3     1  ZINC001284642199    0.1300
      7 N7        -12.5913   -0.1294   51.3104 N.3     1  ZINC001284642199   -0.6800
      8 C8        -11.8668    0.9255   52.0316 C.3     1  ZINC001284642199    0.0500
      9 C9        -10.9081    0.2883   53.0394 C.3     1  ZINC001284642199    0.1600
     10 H10       -10.7813   -0.7681   52.8024 H       1  ZINC001284642199    0.1000
     11 N11        -9.6096    0.9632   52.9723 N.am    1  ZINC001284642199   -0.7200
     12 C12        -8.5094    0.2732   52.6120 C.2     1  ZINC001284642199    0.5200
     13 O13        -8.5945   -0.9060   52.3418 O.2     1  ZINC001284642199   -0.5300
     14 C14        -7.1733    0.9671   52.5447 C.3     1  ZINC001284642199   -0.1100
     15 H15        -6.7414    1.0215   53.5440 H       1  ZINC001284642199    0.0900
     16 C16        -6.2358    0.1805   51.6263 C.3     1  ZINC001284642199   -0.1000
     17 C17        -4.8794    0.8849   51.5579 C.3     1  ZINC001284642199   -0.1100
     18 C18        -5.0664    2.2994   51.0053 C.3     1  ZINC001284642199   -0.0900
     19 H19        -5.4983    2.2448   50.0059 H       1  ZINC001284642199    0.0700
     20 C20        -3.7100    3.0038   50.9370 C.3     1  ZINC001284642199   -0.1500
     21 C21        -6.0039    3.0858   51.9237 C.3     1  ZINC001284642199   -0.1100
     22 C22        -7.3603    2.3815   51.9920 C.3     1  ZINC001284642199   -0.1100
     23 C23       -11.4837    0.4289   54.4500 C.3     1  ZINC001284642199   -0.0800
     24 C24       -11.5133    1.9071   54.8438 C.3     1  ZINC001284642199   -0.1400
     25 C25       -12.9056   -0.1352   54.4793 C.3     1  ZINC001284642199   -0.1400
     26 C26       -10.6077   -0.3445   55.4377 C.3     1  ZINC001284642199   -0.1300
     27 N27       -15.4599   -1.1595   50.5137 N.ar    1  ZINC001284642199   -0.5100
     28 C28       -16.2042   -2.1320   50.0121 C.ar    1  ZINC001284642199    0.1500
     29 H29       -16.2912   -4.7117   48.4409 H       1  ZINC001284642199    0.0800
     30 H30       -17.7417   -3.6828   48.5149 H       1  ZINC001284642199    0.0700
     31 H31       -16.7057   -3.6577   47.0678 H       1  ZINC001284642199    0.0700
     32 H32       -14.5489   -2.4689   47.0983 H       1  ZINC001284642199    0.1700
     33 H33       -14.2738    1.0955   51.0241 H       1  ZINC001284642199    0.1000
     34 H34       -13.1521    1.0205   49.6441 H       1  ZINC001284642199    0.0600
     35 H35       -11.9555   -0.7098   50.7840 H       1  ZINC001284642199    0.3400
     36 H36       -12.5790    1.5603   52.5587 H       1  ZINC001284642199    0.0900
     37 H37       -11.2999    1.5275   51.3215 H       1  ZINC001284642199    0.0400
     38 H38        -9.5417    1.9066   53.1872 H       1  ZINC001284642199    0.3900
     39 H39        -6.6677    0.1260   50.6269 H       1  ZINC001284642199    0.0700
     40 H40        -6.1025   -0.8271   52.0198 H       1  ZINC001284642199    0.0700
     41 H41        -4.2116    0.3246   50.9036 H       1  ZINC001284642199    0.0700
     42 H42        -4.4475    0.9395   52.5572 H       1  ZINC001284642199    0.0600
     43 H43        -3.0422    2.4435   50.2826 H       1  ZINC001284642199    0.0500
     44 H44        -3.8432    4.0114   50.5433 H       1  ZINC001284642199    0.0500
     45 H45        -3.2782    3.0583   51.9363 H       1  ZINC001284642199    0.0500
     46 H46        -5.5720    3.1404   52.9230 H       1  ZINC001284642199    0.0600
     47 H47        -6.1372    4.0935   51.5301 H       1  ZINC001284642199    0.0700
     48 H48        -7.7921    2.3270   50.9927 H       1  ZINC001284642199    0.0700
     49 H49        -8.0282    2.9417   52.6463 H       1  ZINC001284642199    0.0600
     50 H50       -12.1373    2.4581   54.1401 H       1  ZINC001284642199    0.0600
     51 H51       -11.9232    2.0073   55.8488 H       1  ZINC001284642199    0.0600
     52 H52       -10.5002    2.3090   54.8230 H       1  ZINC001284642199    0.0500
     53 H53       -12.8846   -1.1883   54.1988 H       1  ZINC001284642199    0.0600
     54 H54       -13.3157   -0.0350   55.4843 H       1  ZINC001284642199    0.0600
     55 H55       -13.5296    0.4158   53.7757 H       1  ZINC001284642199    0.0600
     56 H56        -9.5948    0.0574   55.4169 H       1  ZINC001284642199    0.0500
     57 H57       -11.0178   -0.2443   56.4427 H       1  ZINC001284642199    0.0500
     58 H58       -10.5867   -1.3976   55.1573 H       1  ZINC001284642199    0.0600
     59 H59       -17.0375   -2.5285   50.5734 H       1  ZINC001284642199    0.1700
@<TRIPOS>BOND
     1     1     2    1
     2     1    29    1
     3     1    30    1
     4     1    31    1
     5     2    28   ar
     6     2     3   ar
     7     3     4   ar
     8     3    32    1
     9     4     5   ar
    10     5     6    1
    11     5    27   ar
    12     6     7    1
    13     6    33    1
    14     6    34    1
    15     7     8    1
    16     7    35    1
    17     8     9    1
    18     8    36    1
    19     8    37    1
    20     9    10    1
    21     9    11    1
    22     9    23    1
    23    11    12   am
    24    11    38    1
    25    12    13    2
    26    12    14    1
    27    14    15    1
    28    14    22    1
    29    14    16    1
    30    16    17    1
    31    16    39    1
    32    16    40    1
    33    17    18    1
    34    17    41    1
    35    17    42    1
    36    18    19    1
    37    18    20    1
    38    18    21    1
    39    20    43    1
    40    20    44    1
    41    20    45    1
    42    21    22    1
    43    21    46    1
    44    21    47    1
    45    22    48    1
    46    22    49    1
    47    23    24    1
    48    23    25    1
    49    23    26    1
    50    24    50    1
    51    24    51    1
    52    24    52    1
    53    25    53    1
    54    25    54    1
    55    25    55    1
    56    26    56    1
    57    26    57    1
    58    26    58    1
    59    27    28   ar
    60    28    59    1
@<TRIPOS>SUBSTRUCTURE
     1 ZINC001284642199        1 TEMP              0 ****  ****    0 ROOT


##########                                Name:    ZINC000981700465
##########                DOCK_Rotatable_Bonds:                   9
##########                         Heavy_Atoms:                  26
##########                    Molecular_Weight:             356.428
##########                DOCK_Rotatable_Bonds:                   9
##########                       Formal_Charge:               -0.01
##########                     HBond_Acceptors:                   8
##########                        HBond_Donors:                   3
##########                         Heavy_Atoms:                  26
##########                          Grid_Score:          -32.612633
##########                     Grid_vdw_energy:          -30.696600
##########                      Grid_es_energy:           -1.916033
##########           Internal_energy_repulsive:           13.829326

@<TRIPOS>MOLECULE
ZINC000981700465
 50 52 1 0 0
SMALL
USER_CHARGES


@<TRIPOS>ATOM
      1 C1        -11.3586   -0.3238   57.5844 C.3     1  ZINC000981700465   -0.1500
      2 C2        -11.8355    0.9758   56.9327 C.3     1  ZINC000981700465   -0.1100
      3 C3        -10.8483    1.3905   55.8399 C.3     1  ZINC000981700465   -0.0500
      4 C4        -10.9649    0.4448   54.6724 C.2     1  ZINC000981700465    0.1400
      5 N5        -12.0149   -0.2642   54.3621 N.2     1  ZINC000981700465   -0.2900
      6 N6        -11.7323   -1.0147   53.2153 N.pl3   1  ZINC000981700465   -0.4600
      7 C7        -10.4750   -0.7454   52.8293 C.2     1  ZINC000981700465    0.1000
      8 C8         -9.9580    0.1754   53.7184 C.2     1  ZINC000981700465   -0.2900
      9 C9         -8.6052    0.7605   53.6849 C.2     1  ZINC000981700465    0.5900
     10 O10        -8.3626    1.7683   54.3206 O.2     1  ZINC000981700465   -0.5300
     11 N11        -7.6373    0.1782   52.9496 N.am    1  ZINC000981700465   -0.7300
     12 C12        -6.2934    0.7605   52.9149 C.3     1  ZINC000981700465    0.1300
     13 C13        -6.2369    1.8491   51.8413 C.3     1  ZINC000981700465   -0.1100
     14 H14        -7.1835    1.9028   51.3036 H       1  ZINC000981700465    0.0900
     15 C15        -5.8958    3.2199   52.4766 C.3     1  ZINC000981700465   -0.1200
     16 C16        -5.2957    4.0084   51.2862 C.3     1  ZINC000981700465   -0.1300
     17 C17        -4.4739    2.9574   50.5119 C.3     1  ZINC000981700465    0.1400
     18 H18        -4.5552    3.1357   49.4396 H       1  ZINC000981700465    0.1000
     19 N19        -3.0695    3.0148   50.9247 N.am    1  ZINC000981700465   -0.7100
     20 C20        -2.1320    2.3518   50.2189 C.2     1  ZINC000981700465    0.5600
     21 O21        -2.4519    1.7052   49.2410 O.2     1  ZINC000981700465   -0.5200
     22 C22        -0.7116    2.4113   50.6352 C.ar    1  ZINC000981700465   -0.1400
     23 C23        -0.3241    3.0980   51.7930 C.ar    1  ZINC000981700465   -0.0600
     24 C24         1.0226    3.1091   52.1180 C.ar    1  ZINC000981700465    0.0400
     25 N25         1.8917    2.4859   51.3462 N.ar    1  ZINC000981700465   -0.2200
     26 N26         1.5435    1.8553   50.2848 N.ar    1  ZINC000981700465   -0.2400
     27 C27         0.2875    1.7794   49.8896 C.ar    1  ZINC000981700465    0.0700
     28 C28        -5.0744    1.5824   50.8627 C.3     1  ZINC000981700465   -0.1200
     29 H29       -10.3733   -0.1695   58.0242 H       1  ZINC000981700465    0.0600
     30 H30       -12.0619   -0.6193   58.3629 H       1  ZINC000981700465    0.0600
     31 H31       -11.3008   -1.1086   56.8301 H       1  ZINC000981700465    0.0500
     32 H32       -12.8207    0.8214   56.4928 H       1  ZINC000981700465    0.0600
     33 H33       -11.8932    1.7605   57.6870 H       1  ZINC000981700465    0.0600
     34 H34       -11.0757    2.4043   55.5104 H       1  ZINC000981700465    0.1000
     35 H35        -9.8331    1.3561   56.2352 H       1  ZINC000981700465    0.0800
     36 H36       -12.3420   -1.6264   52.7738 H       1  ZINC000981700465    0.4500
     37 H37        -9.9635   -1.1680   51.9771 H       1  ZINC000981700465    0.1800
     38 H38        -7.8305   -0.6264   52.4435 H       1  ZINC000981700465    0.4000
     39 H39        -6.0610    1.1960   53.8866 H       1  ZINC000981700465    0.0700
     40 H40        -5.5662   -0.0174   52.6822 H       1  ZINC000981700465    0.0700
     41 H41        -6.7965    3.7080   52.8486 H       1  ZINC000981700465    0.0700
     42 H42        -5.1608    3.1042   53.2731 H       1  ZINC000981700465    0.0700
     43 H43        -6.0892    4.4116   50.6570 H       1  ZINC000981700465    0.0800
     44 H44        -4.6491    4.8088   51.6460 H       1  ZINC000981700465    0.0700
     45 H45        -2.8142    3.5299   51.7059 H       1  ZINC000981700465    0.4000
     46 H46        -1.0514    3.6027   52.4118 H       1  ZINC000981700465    0.1700
     47 H47         1.3607    3.6281   53.0028 H       1  ZINC000981700465    0.1800
     48 H48         0.0332    1.2387   48.9900 H       1  ZINC000981700465    0.1700
     49 H49        -4.3212    0.9572   51.3419 H       1  ZINC000981700465    0.0800
     50 H50        -5.4454    1.0959   49.9606 H       1  ZINC000981700465    0.0800
@<TRIPOS>BOND
     1     1     2    1
     2     1    29    1
     3     1    30    1
     4     1    31    1
     5     2     3    1
     6     2    32    1
     7     2    33    1
     8     3     4    1
     9     3    34    1
    10     3    35    1
    11     4     8    1
    12     4     5    2
    13     5     6    1
    14     6     7    1
    15     6    36    1
    16     7     8    2
    17     7    37    1
    18     8     9    1
    19     9    10    2
    20     9    11   am
    21    11    12    1
    22    11    38    1
    23    12    13    1
    24    12    39    1
    25    12    40    1
    26    13    14    1
    27    13    28    1
    28    13    15    1
    29    15    16    1
    30    15    41    1
    31    15    42    1
    32    16    17    1
    33    16    43    1
    34    16    44    1
    35    17    18    1
    36    17    19    1
    37    17    28    1
    38    19    20   am
    39    19    45    1
    40    20    21    2
    41    20    22    1
    42    22    27   ar
    43    22    23   ar
    44    23    24   ar
    45    23    46    1
    46    24    25   ar
    47    24    47    1
    48    25    26   ar
    49    26    27   ar
    50    27    48    1
    51    28    49    1
    52    28    50    1
@<TRIPOS>SUBSTRUCTURE
     1 ZINC000981700465        1 TEMP              0 ****  ****    0 ROOT


##########                                Name:    ZINC001105194920
##########                DOCK_Rotatable_Bonds:                   8
##########                         Heavy_Atoms:                  25
##########                    Molecular_Weight:             346.392
##########                DOCK_Rotatable_Bonds:                   8
##########                       Formal_Charge:          -0.0100007
##########                     HBond_Acceptors:                  10
##########                        HBond_Donors:                   3
##########                         Heavy_Atoms:                  25
##########                          Grid_Score:          -32.606243
##########                     Grid_vdw_energy:          -31.895027
##########                      Grid_es_energy:           -0.711217
##########           Internal_energy_repulsive:            9.753139

@<TRIPOS>MOLECULE
ZINC001105194920
 47 49 1 0 0
SMALL
USER_CHARGES


@<TRIPOS>ATOM
      1 C1          3.9261    2.6067   51.8244 C.3     1  ZINC001105194920    0.0300
      2 O2          3.4989    1.3996   51.1901 O.3     1  ZINC001105194920   -0.3900
      3 C3          2.0804    1.2301   51.1582 C.3     1  ZINC001105194920    0.0700
      4 C4          1.4626    2.2764   50.2285 C.3     1  ZINC001105194920    0.0900
      5 H5          1.6701    3.2741   50.6155 H       1  ZINC001105194920    0.0900
      6 C6          2.0667    2.1360   48.8298 C.3     1  ZINC001105194920   -0.1800
      7 N7          0.0097    2.0713   50.1572 N.3     1  ZINC001105194920   -0.6800
      8 C8         -0.6399    2.4647   51.4147 C.3     1  ZINC001105194920    0.1400
      9 C9         -2.1178    2.6450   51.1816 C.2     1  ZINC001105194920   -0.0200
     10 C10        -2.8927    3.6553   51.6407 C.2     1  ZINC001105194920   -0.0200
     11 N11        -4.1435    3.4064   51.1886 N.pl3   1  ZINC001105194920   -0.2800
     12 C12        -5.3263    4.2347   51.4358 C.3     1  ZINC001105194920    0.1000
     13 C13        -6.6510    3.4516   51.3955 C.3     1  ZINC001105194920    0.1100
     14 N14        -6.4602    3.2507   52.8450 N.am    1  ZINC001105194920   -0.6300
     15 C15        -6.8820    2.3303   53.7347 C.2     1  ZINC001105194920    0.6200
     16 O16        -6.5564    2.4200   54.9026 O.2     1  ZINC001105194920   -0.5400
     17 C17        -7.7397    1.2124   53.2906 C.ar    1  ZINC001105194920   -0.0600
     18 N18        -9.0498    1.2448   53.5164 N.ar    1  ZINC001105194920   -0.3700
     19 C19        -9.8119    0.2461   53.1192 C.ar    1  ZINC001105194920   -0.0200
     20 C20        -9.2550   -0.8432   52.4645 C.ar    1  ZINC001105194920    0.1500
     21 N21        -7.9556   -0.8896   52.2337 N.ar    1  ZINC001105194920   -0.5100
     22 C22        -7.1762    0.1126   52.6228 C.ar    1  ZINC001105194920    0.4200
     23 N23        -5.8152    0.0683   52.3827 N.pl3   1  ZINC001105194920   -0.8100
     24 C24        -5.6222    4.4626   52.9293 C.3     1  ZINC001105194920    0.1100
     25 N25        -4.1155    2.3170   50.5037 N.2     1  ZINC001105194920   -0.0800
     26 N26        -2.9207    1.8411   50.4756 N.2     1  ZINC001105194920   -0.2600
     27 H27         3.5776    2.6174   52.8572 H       1  ZINC001105194920    0.0400
     28 H28         5.0146    2.6606   51.8076 H       1  ZINC001105194920    0.0800
     29 H29         3.5117    3.4630   51.2923 H       1  ZINC001105194920    0.0400
     30 H30         1.8419    0.2318   50.7912 H       1  ZINC001105194920    0.0600
     31 H31         1.6771    1.3537   52.1632 H       1  ZINC001105194920    0.0500
     32 H32         1.8592    1.1383   48.4429 H       1  ZINC001105194920    0.0700
     33 H33         1.6266    2.8814   48.1674 H       1  ZINC001105194920    0.0500
     34 H34         3.1447    2.2882   48.8827 H       1  ZINC001105194920    0.0600
     35 H35        -0.3876    2.5682   49.3740 H       1  ZINC001105194920    0.3500
     36 H36        -0.4821    1.6885   52.1634 H       1  ZINC001105194920    0.0900
     37 H37        -0.2107    3.4025   51.7673 H       1  ZINC001105194920    0.0500
     38 H38        -2.5764    4.4916   52.2465 H       1  ZINC001105194920    0.1800
     39 H39        -5.3366    5.1488   50.8420 H       1  ZINC001105194920    0.1500
     40 H40        -7.5168    4.0653   51.1471 H       1  ZINC001105194920    0.1200
     41 H41        -6.5996    2.5311   50.8139 H       1  ZINC001105194920    0.1000
     42 H42       -10.8754    0.2754   53.3044 H       1  ZINC001105194920    0.1800
     43 H43        -9.8874   -1.6573   52.1424 H       1  ZINC001105194920    0.1800
     44 H44        -5.4380   -0.6578   51.8617 H       1  ZINC001105194920    0.4000
     45 H45        -5.2375    0.7633   52.7353 H       1  ZINC001105194920    0.4300
     46 H46        -4.7494    4.3493   53.5723 H       1  ZINC001105194920    0.1100
     47 H47        -6.1859    5.3733   53.1316 H       1  ZINC001105194920    0.1200
@<TRIPOS>BOND
     1     1     2    1
     2     1    27    1
     3     1    28    1
     4     1    29    1
     5     2     3    1
     6     3     4    1
     7     3    30    1
     8     3    31    1
     9     4     5    1
    10     4     6    1
    11     4     7    1
    12     6    32    1
    13     6    33    1
    14     6    34    1
    15     7     8    1
    16     7    35    1
    17     8     9    1
    18     8    36    1
    19     8    37    1
    20     9    26    1
    21     9    10    2
    22    10    11    1
    23    10    38    1
    24    11    12    1
    25    11    25    1
    26    12    24    1
    27    12    13    1
    28    12    39    1
    29    13    14    1
    30    13    40    1
    31    13    41    1
    32    14    15   am
    33    14    24    1
    34    15    16    2
    35    15    17    1
    36    17    22   ar
    37    17    18   ar
    38    18    19   ar
    39    19    20   ar
    40    19    42    1
    41    20    21   ar
    42    20    43    1
    43    21    22   ar
    44    22    23    1
    45    23    44    1
    46    23    45    1
    47    24    46    1
    48    24    47    1
    49    25    26    2
@<TRIPOS>SUBSTRUCTURE
     1 ZINC001105194920        1 TEMP              0 ****  ****    0 ROOT


##########                                Name:    ZINC001411334959
##########                DOCK_Rotatable_Bonds:                   9
##########                         Heavy_Atoms:                  24
##########                    Molecular_Weight:              339.37
##########                DOCK_Rotatable_Bonds:                   9
##########                       Formal_Charge:           0.0199995
##########                     HBond_Acceptors:                   9
##########                        HBond_Donors:                   3
##########                         Heavy_Atoms:                  24
##########                          Grid_Score:          -32.576874
##########                     Grid_vdw_energy:          -31.880821
##########                      Grid_es_energy:           -0.696054
##########           Internal_energy_repulsive:            7.478949

@<TRIPOS>MOLECULE
ZINC001411334959
 46 48 1 0 0
SMALL
USER_CHARGES


@<TRIPOS>ATOM
      1 O1         -3.4090    3.7015   50.6387 O.2     1  ZINC001411334959   -0.5400
      2 C2         -2.8922    2.6265   50.8586 C.2     1  ZINC001411334959    0.5200
      3 C3         -1.3935    2.5210   50.9762 C.3     1  ZINC001411334959   -0.1400
      4 C4         -0.8284    1.8592   49.7178 C.3     1  ZINC001411334959   -0.0100
      5 C5          0.6573    1.6637   49.8769 C.2     1  ZINC001411334959    0.0100
      6 N6          1.5597    1.6433   48.9224 N.2     1  ZINC001411334959   -0.2800
      7 N7          2.7163    1.4536   49.4518 N.pl3   1  ZINC001411334959   -0.2500
      8 N8          2.6206    1.3460   50.7296 N.2     1  ZINC001411334959   -0.2800
      9 C9          1.3580    1.4731   51.0701 C.2     1  ZINC001411334959   -0.0200
     10 N10        -3.6585    1.5273   51.0034 N.am    1  ZINC001411334959   -0.7200
     11 C11        -5.1154    1.6298   50.8890 C.3     1  ZINC001411334959    0.1200
     12 C12        -5.8492    0.3052   51.1572 C.3     1  ZINC001411334959   -0.1400
     13 C13        -6.9023    1.1325   51.9130 C.3     1  ZINC001411334959   -0.1200
     14 C14        -7.4056    0.4618   53.1928 C.3     1  ZINC001411334959    0.1300
     15 N15        -8.7922    0.8638   53.4419 N.am    1  ZINC001411334959   -0.7200
     16 C16        -9.8063    0.0815   53.0223 C.2     1  ZINC001411334959    0.5100
     17 O17        -9.5710   -0.9558   52.4396 O.2     1  ZINC001411334959   -0.5100
     18 C18       -11.2327    0.4958   53.2770 C.3     1  ZINC001411334959    0.0700
     19 F19       -11.3065    1.8602   53.5776 F       1  ZINC001411334959   -0.1800
     20 C20       -12.1358    0.1431   52.0637 C.3     1  ZINC001411334959   -0.1600
     21 C21       -13.5064   -0.0443   52.7619 C.3     1  ZINC001411334959    0.0500
     22 O22       -13.2030   -0.6571   54.0252 O.3     1  ZINC001411334959   -0.3700
     23 C23       -11.8572   -0.3504   54.4072 C.3     1  ZINC001411334959    0.0400
     24 C24        -5.7961    2.1726   52.1566 C.3     1  ZINC001411334959   -0.1400
     25 H25        -0.9665    3.5180   51.0854 H       1  ZINC001411334959    0.1000
     26 H26        -1.1389    1.9192   51.8486 H       1  ZINC001411334959    0.1000
     27 H27        -1.3084    0.8919   49.5692 H       1  ZINC001411334959    0.1000
     28 H28        -1.0207    2.4965   48.8546 H       1  ZINC001411334959    0.0900
     29 H29         3.5475    1.3991   48.9548 H       1  ZINC001411334959    0.4700
     30 H30         0.9456    1.4317   52.0674 H       1  ZINC001411334959    0.2000
     31 H31        -3.2453    0.6683   51.1831 H       1  ZINC001411334959    0.4000
     32 H32        -5.4341    2.1296   49.9742 H       1  ZINC001411334959    0.1200
     33 H33        -6.2333   -0.1715   50.2554 H       1  ZINC001411334959    0.0800
     34 H34        -5.2925   -0.3809   51.7955 H       1  ZINC001411334959    0.0900
     35 H35        -7.7113    1.4941   51.2783 H       1  ZINC001411334959    0.1000
     36 H36        -7.3562   -0.6211   53.0791 H       1  ZINC001411334959    0.0800
     37 H37        -6.7820    0.7678   54.0328 H       1  ZINC001411334959    0.0800
     38 H38        -8.9804    1.6928   53.9090 H       1  ZINC001411334959    0.4100
     39 H39       -12.1690    0.9636   51.3470 H       1  ZINC001411334959    0.1000
     40 H40       -11.8088   -0.7805   51.5860 H       1  ZINC001411334959    0.1100
     41 H41       -13.9877    0.9215   52.9158 H       1  ZINC001411334959    0.0700
     42 H42       -14.1470   -0.6970   52.1688 H       1  ZINC001411334959    0.1000
     43 H43       -11.2899   -1.2723   54.5354 H       1  ZINC001411334959    0.0900
     44 H44       -11.8572    0.2176   55.3375 H       1  ZINC001411334959    0.0900
     45 H45        -5.2248    1.9970   53.0682 H       1  ZINC001411334959    0.0900
     46 H46        -6.1374    3.2034   52.0618 H       1  ZINC001411334959    0.0800
@<TRIPOS>BOND
     1     1     2    2
     2     2     3    1
     3     2    10   am
     4     3     4    1
     5     3    25    1
     6     3    26    1
     7     4     5    1
     8     4    27    1
     9     4    28    1
    10     5     9    1
    11     5     6    2
    12     6     7    1
    13     7     8    1
    14     7    29    1
    15     8     9    2
    16     9    30    1
    17    10    11    1
    18    10    31    1
    19    11    24    1
    20    11    12    1
    21    11    32    1
    22    12    13    1
    23    12    33    1
    24    12    34    1
    25    13    14    1
    26    13    24    1
    27    13    35    1
    28    14    15    1
    29    14    36    1
    30    14    37    1
    31    15    16   am
    32    15    38    1
    33    16    17    2
    34    16    18    1
    35    18    23    1
    36    18    19    1
    37    18    20    1
    38    20    21    1
    39    20    39    1
    40    20    40    1
    41    21    22    1
    42    21    41    1
    43    21    42    1
    44    22    23    1
    45    23    43    1
    46    23    44    1
    47    24    45    1
    48    24    46    1
@<TRIPOS>SUBSTRUCTURE
     1 ZINC001411334959        1 TEMP              0 ****  ****    0 ROOT


##########                                Name:    ZINC000771225867
##########                DOCK_Rotatable_Bonds:                   9
##########                         Heavy_Atoms:                  23
##########                    Molecular_Weight:             355.802
##########                DOCK_Rotatable_Bonds:                   9
##########                       Formal_Charge:        -3.12924e-07
##########                     HBond_Acceptors:                   9
##########                        HBond_Donors:                   3
##########                         Heavy_Atoms:                  23
##########                          Grid_Score:          -32.551201
##########                     Grid_vdw_energy:          -31.590815
##########                      Grid_es_energy:           -0.960384
##########           Internal_energy_repulsive:           10.050922

@<TRIPOS>MOLECULE
ZINC000771225867
 37 38 1 0 0
SMALL
USER_CHARGES


@<TRIPOS>ATOM
      1 C1          2.0663    1.3718   47.9508 C.3     1  ZINC000771225867    0.0400
      2 O2          0.8505    1.4638   48.6961 O.3     1  ZINC000771225867   -0.3600
      3 C3          0.9033    2.1156   49.8768 C.2     1  ZINC000771225867    0.5500
      4 O4          1.9587    2.5759   50.2711 O.2     1  ZINC000771225867   -0.4900
      5 C5         -0.2687    2.2637   50.6563 C.2     1  ZINC000771225867   -0.3400
      6 C6         -0.3762    2.9672   51.8275 C.2     1  ZINC000771225867    0.2700
      7 Cl7         0.9580    3.8097   52.5511 Cl      1  ZINC000771225867    0.0400
      8 N8         -1.5758    2.9468   52.3513 N.2     1  ZINC000771225867   -0.5500
      9 C9         -2.4945    2.2795   51.7133 C.2     1  ZINC000771225867    0.3400
     10 N10        -3.8039    2.1575   52.1245 N.pl3   1  ZINC000771225867   -0.6700
     11 C11        -4.7821    1.4864   51.2651 C.3     1  ZINC000771225867    0.1700
     12 C12        -6.1132    1.4280   51.9694 C.ar    1  ZINC000771225867   -0.0800
     13 C13        -6.6416    2.5695   52.5430 C.ar    1  ZINC000771225867   -0.1300
     14 C14        -7.8628    2.5193   53.1900 C.ar    1  ZINC000771225867   -0.0800
     15 C15        -8.5576    1.3279   53.2646 C.ar    1  ZINC000771225867   -0.2000
     16 C16        -8.0295    0.1808   52.6897 C.ar    1  ZINC000771225867    0.1300
     17 O17        -8.7114   -0.9925   52.7614 O.3     1  ZINC000771225867   -0.2900
     18 C18       -10.1090   -0.9496   52.4667 C.3     1  ZINC000771225867    0.0400
     19 C19       -10.8962   -1.0864   53.7444 C.2     1  ZINC000771225867    0.5200
     20 N20       -12.1051   -0.5011   53.8572 N.am    1  ZINC000771225867   -0.8500
     21 O21       -10.4420   -1.7232   54.6713 O.2     1  ZINC000771225867   -0.5200
     22 C22        -6.8070    0.2350   52.0364 C.ar    1  ZINC000771225867   -0.1200
     23 S23        -1.8522    1.5833   50.2907 S.3     1  ZINC000771225867    0.2200
     24 H24         2.4255    2.3739   47.7163 H       1  ZINC000771225867    0.0600
     25 H25         2.8162    0.8463   48.5422 H       1  ZINC000771225867    0.0600
     26 H26         1.8848    0.8251   47.0254 H       1  ZINC000771225867    0.1000
     27 H27        -4.0780    2.5161   52.9832 H       1  ZINC000771225867    0.4200
     28 H28        -4.8883    2.0416   50.3330 H       1  ZINC000771225867    0.0900
     29 H29        -4.4412    0.4741   51.0481 H       1  ZINC000771225867    0.0900
     30 H30        -6.0997    3.5019   52.4860 H       1  ZINC000771225867    0.1300
     31 H31        -8.2734    3.4123   53.6375 H       1  ZINC000771225867    0.1300
     32 H32        -9.5112    1.2891   53.7703 H       1  ZINC000771225867    0.1300
     33 H33       -10.3510    0.0006   51.9908 H       1  ZINC000771225867    0.1000
     34 H34       -10.3637   -1.7683   51.7937 H       1  ZINC000771225867    0.1000
     35 H35       -12.6122   -0.5902   54.6792 H       1  ZINC000771225867    0.4000
     36 H36       -12.4678    0.0090   53.1163 H       1  ZINC000771225867    0.4100
     37 H37        -6.3937   -0.6564   51.5881 H       1  ZINC000771225867    0.1400
@<TRIPOS>BOND
     1     1     2    1
     2     1    24    1
     3     1    25    1
     4     1    26    1
     5     2     3    1
     6     3     4    2
     7     3     5    1
     8     5    23    1
     9     5     6    2
    10     6     7    1
    11     6     8    1
    12     8     9    2
    13     9    10    1
    14     9    23    1
    15    10    11    1
    16    10    27    1
    17    11    12    1
    18    11    28    1
    19    11    29    1
    20    12    22   ar
    21    12    13   ar
    22    13    14   ar
    23    13    30    1
    24    14    15   ar
    25    14    31    1
    26    15    16   ar
    27    15    32    1
    28    16    17    1
    29    16    22   ar
    30    17    18    1
    31    18    19    1
    32    18    33    1
    33    18    34    1
    34    19    20   am
    35    19    21    2
    36    20    35    1
    37    20    36    1
    38    22    37    1
@<TRIPOS>SUBSTRUCTURE
     1 ZINC000771225867        1 TEMP              0 ****  ****    0 ROOT


##########                                Name:    ZINC000541000201
##########                DOCK_Rotatable_Bonds:                  10
##########                         Heavy_Atoms:                  30
##########                    Molecular_Weight:             420.413
##########                DOCK_Rotatable_Bonds:                  10
##########                       Formal_Charge:               -0.03
##########                     HBond_Acceptors:                   9
##########                        HBond_Donors:                   1
##########                         Heavy_Atoms:                  30
##########                          Grid_Score:          -32.535572
##########                     Grid_vdw_energy:          -31.673880
##########                      Grid_es_energy:           -0.861694
##########           Internal_energy_repulsive:            9.534171

@<TRIPOS>MOLECULE
ZINC000541000201
 52 54 1 0 0
SMALL
USER_CHARGES


@<TRIPOS>ATOM
      1 C1        -13.1643    0.2368   51.8586 C.3     1  ZINC000541000201    0.0400
      2 O2        -11.7773   -0.1275   52.0867 O.3     1  ZINC000541000201   -0.3500
      3 C3        -11.0701    0.6557   52.9163 C.2     1  ZINC000541000201    0.4500
      4 O4        -11.4232    1.7929   53.1213 O.2     1  ZINC000541000201   -0.4900
      5 C5         -9.8356    0.1166   53.5919 C.3     1  ZINC000541000201    0.2100
      6 H6         -9.8636   -0.9730   53.5840 H       1  ZINC000541000201    0.1400
      7 N7         -9.7887    0.5939   54.9762 N.am    1  ZINC000541000201   -0.7100
      8 C8        -10.2040   -0.2051   55.9789 C.2     1  ZINC000541000201    0.5800
      9 O9        -10.6161   -1.3226   55.7349 O.2     1  ZINC000541000201   -0.5300
     10 C10       -10.1583    0.2764   57.3736 C.ar    1  ZINC000541000201   -0.2300
     11 C11       -10.4010    1.6258   57.6689 C.ar    1  ZINC000541000201    0.0200
     12 C12       -10.3469    2.0280   58.9879 C.ar    1  ZINC000541000201   -0.2000
     13 C13       -10.0561    1.0902   59.9736 C.ar    1  ZINC000541000201    0.3500
     14 O14       -10.0018    1.4794   61.2703 O.3     1  ZINC000541000201   -0.2900
     15 C15        -9.3398    0.6021   62.1837 C.3     1  ZINC000541000201    0.0800
     16 C16        -7.8040    0.7787   62.0883 C.3     1  ZINC000541000201   -0.1400
     17 C17        -7.3155    0.2738   63.4688 C.3     1  ZINC000541000201   -0.1200
     18 C18        -8.3879    0.7771   64.4568 C.3     1  ZINC000541000201   -0.1200
     19 C19        -9.6751    0.9858   63.6398 C.3     1  ZINC000541000201   -0.1200
     20 N20        -9.8321   -0.1775   59.6627 N.ar    1  ZINC000541000201   -0.5400
     21 C21        -9.8788   -0.6054   58.4186 C.ar    1  ZINC000541000201    0.1800
     22 C22        -8.6107    0.5930   52.8545 C.ar    1  ZINC000541000201   -0.1300
     23 C23        -8.3540    1.9473   52.7455 C.ar    1  ZINC000541000201   -0.0700
     24 C24        -7.2318    2.3865   52.0700 C.ar    1  ZINC000541000201   -0.1300
     25 C25        -6.3620    1.4675   51.5012 C.ar    1  ZINC000541000201    0.1200
     26 O26        -5.2572    1.8972   50.8366 O.3     1  ZINC000541000201   -0.3200
     27 C27        -4.0290    1.9199   51.5666 C.3     1  ZINC000541000201    0.4100
     28 F28        -3.1651    0.9448   51.0564 F       1  ZINC000541000201   -0.2000
     29 F29        -3.4352    3.1805   51.4412 F       1  ZINC000541000201   -0.2000
     30 C30        -6.6217    0.1093   51.6123 C.ar    1  ZINC000541000201   -0.1900
     31 C31        -7.7427   -0.3250   52.2929 C.ar    1  ZINC000541000201   -0.0500
     32 H32       -13.6189   -0.4763   51.1709 H       1  ZINC000541000201    0.1000
     33 H33       -13.7040    0.2232   52.8055 H       1  ZINC000541000201    0.0600
     34 H34       -13.2111    1.2371   51.4281 H       1  ZINC000541000201    0.0600
     35 H35        -9.4588    1.4851   55.1710 H       1  ZINC000541000201    0.4100
     36 H36       -10.6242    2.3328   56.8836 H       1  ZINC000541000201    0.1600
     37 H37       -10.5281    3.0594   59.2520 H       1  ZINC000541000201    0.1500
     38 H38        -9.6197   -0.4329   61.9879 H       1  ZINC000541000201    0.1000
     39 H39        -7.3938    0.1659   61.2856 H       1  ZINC000541000201    0.0700
     40 H40        -7.5438    1.8277   61.9465 H       1  ZINC000541000201    0.0800
     41 H41        -7.2663   -0.8151   63.4811 H       1  ZINC000541000201    0.0700
     42 H42        -6.3431    0.7033   63.7098 H       1  ZINC000541000201    0.0700
     43 H43        -8.5565    0.0333   65.2356 H       1  ZINC000541000201    0.0700
     44 H44        -8.0717    1.7200   64.9028 H       1  ZINC000541000201    0.0700
     45 H45        -9.9834    2.0301   63.6892 H       1  ZINC000541000201    0.0800
     46 H46       -10.4683    0.3434   64.0221 H       1  ZINC000541000201    0.0700
     47 H47        -9.6908   -1.6469   58.2038 H       1  ZINC000541000201    0.1600
     48 H48        -9.0313    2.6622   53.1886 H       1  ZINC000541000201    0.1300
     49 H49        -7.0320    3.4444   51.9846 H       1  ZINC000541000201    0.1400
     50 H50        -4.2275    1.7148   52.6185 H       1  ZINC000541000201    0.1900
     51 H51        -5.9463   -0.6081   51.1700 H       1  ZINC000541000201    0.1400
     52 H52        -7.9451   -1.3823   52.3800 H       1  ZINC000541000201    0.1400
@<TRIPOS>BOND
     1     1     2    1
     2     1    32    1
     3     1    33    1
     4     1    34    1
     5     2     3    1
     6     3     4    2
     7     3     5    1
     8     5     6    1
     9     5     7    1
    10     5    22    1
    11     7     8   am
    12     7    35    1
    13     8     9    2
    14     8    10    1
    15    10    21   ar
    16    10    11   ar
    17    11    12   ar
    18    11    36    1
    19    12    13   ar
    20    12    37    1
    21    13    14    1
    22    13    20   ar
    23    14    15    1
    24    15    19    1
    25    15    16    1
    26    15    38    1
    27    16    17    1
    28    16    39    1
    29    16    40    1
    30    17    18    1
    31    17    41    1
    32    17    42    1
    33    18    19    1
    34    18    43    1
    35    18    44    1
    36    19    45    1
    37    19    46    1
    38    20    21   ar
    39    21    47    1
    40    22    31   ar
    41    22    23   ar
    42    23    24   ar
    43    23    48    1
    44    24    25   ar
    45    24    49    1
    46    25    26    1
    47    25    30   ar
    48    26    27    1
    49    27    28    1
    50    27    29    1
    51    27    50    1
    52    30    31   ar
    53    30    51    1
    54    31    52    1
@<TRIPOS>SUBSTRUCTURE
     1 ZINC000541000201        1 TEMP              0 ****  ****    0 ROOT


##########                                Name:    ZINC000533037883
##########                DOCK_Rotatable_Bonds:                   7
##########                         Heavy_Atoms:                  27
##########                    Molecular_Weight:             368.479
##########                DOCK_Rotatable_Bonds:                   7
##########                       Formal_Charge:          0.00999947
##########                     HBond_Acceptors:                   6
##########                        HBond_Donors:                   1
##########                         Heavy_Atoms:                  27
##########                          Grid_Score:          -32.530247
##########                     Grid_vdw_energy:          -32.053822
##########                      Grid_es_energy:           -0.476424
##########           Internal_energy_repulsive:           14.450698

@<TRIPOS>MOLECULE
ZINC000533037883
 55 58 1 0 0
SMALL
USER_CHARGES


@<TRIPOS>ATOM
      1 O1         -7.0503   -0.6307   51.8842 O.2     1  ZINC000533037883   -0.5900
      2 C2         -7.6980    0.3764   52.0954 C.2     1  ZINC000533037883    0.7100
      3 N3         -8.9091    0.2885   52.6802 N.am    1  ZINC000533037883   -0.7500
      4 C4         -9.4478   -1.0211   53.0558 C.3     1  ZINC000533037883    0.1400
      5 C5        -10.5486   -0.8386   54.1026 C.3     1  ZINC000533037883   -0.0500
      6 C6        -11.7162   -0.1151   53.4827 C.2     1  ZINC000533037883   -0.2300
      7 C7        -12.1461   -0.2445   52.2062 C.2     1  ZINC000533037883    0.0600
      8 N8        -13.2138    0.5699   52.0470 N.pl3   1  ZINC000533037883   -0.3200
      9 C9        -13.9578    0.7345   50.8703 C.ar    1  ZINC000533037883    0.1600
     10 C10       -13.5666    0.0904   49.7042 C.ar    1  ZINC000533037883   -0.1400
     11 C11       -14.3017    0.2545   48.5465 C.ar    1  ZINC000533037883   -0.0900
     12 C12       -15.4260    1.0596   48.5478 C.ar    1  ZINC000533037883   -0.1300
     13 C13       -15.8180    1.7023   49.7077 C.ar    1  ZINC000533037883   -0.0900
     14 C14       -15.0906    1.5371   50.8701 C.ar    1  ZINC000533037883   -0.1200
     15 N15       -13.4452    1.2195   53.2664 N.2     1  ZINC000533037883   -0.2900
     16 C16       -12.5508    0.8046   54.1272 C.2     1  ZINC000533037883    0.0700
     17 N17        -7.2024    1.5812   51.7499 N.am    1  ZINC000533037883   -0.6300
     18 C18        -7.9706    2.8075   52.0043 C.3     1  ZINC000533037883    0.1100
     19 C19        -7.0937    3.7832   52.7956 C.3     1  ZINC000533037883   -0.1400
     20 C20        -5.7808    4.0088   52.0423 C.3     1  ZINC000533037883   -0.1100
     21 C21        -5.0304    2.6814   51.9128 C.3     1  ZINC000533037883   -0.0900
     22 H22        -4.8376    2.2740   52.9052 H       1  ZINC000533037883    0.0800
     23 C23        -3.7025    2.9138   51.1893 C.3     1  ZINC000533037883   -0.1200
     24 H24        -3.8698    3.3595   50.2088 H       1  ZINC000533037883    0.0900
     25 C25        -2.7549    3.7987   52.0442 C.3     1  ZINC000533037883   -0.1500
     26 C26        -1.3703    3.3136   51.5458 C.3     1  ZINC000533037883    0.0500
     27 O27        -1.5264    1.9040   51.3179 O.3     1  ZINC000533037883   -0.3900
     28 C28        -2.9063    1.5970   51.0657 C.3     1  ZINC000533037883    0.0500
     29 C29        -5.8812    1.6937   51.1170 C.3     1  ZINC000533037883    0.1300
     30 H30        -9.4241    1.0922   52.8523 H       1  ZINC000533037883    0.4000
     31 H31        -9.8622   -1.5099   52.1742 H       1  ZINC000533037883    0.0700
     32 H32        -8.6498   -1.6367   53.4712 H       1  ZINC000533037883    0.0700
     33 H33       -10.8749   -1.8149   54.4609 H       1  ZINC000533037883    0.0800
     34 H34       -10.1621   -0.2554   54.9384 H       1  ZINC000533037883    0.0800
     35 H35       -11.7138   -0.8832   51.4501 H       1  ZINC000533037883    0.1800
     36 H36       -12.6883   -0.5379   49.7023 H       1  ZINC000533037883    0.1300
     37 H37       -13.9979   -0.2463   47.6390 H       1  ZINC000533037883    0.1300
     38 H38       -15.9987    1.1869   47.6411 H       1  ZINC000533037883    0.1300
     39 H39       -16.6965    2.3305   49.7058 H       1  ZINC000533037883    0.1300
     40 H40       -15.3975    2.0392   51.7758 H       1  ZINC000533037883    0.1400
     41 H41       -12.4676    1.1221   55.1561 H       1  ZINC000533037883    0.1900
     42 H42        -8.2586    3.2616   51.0562 H       1  ZINC000533037883    0.0700
     43 H43        -8.8627    2.5666   52.5825 H       1  ZINC000533037883    0.0800
     44 H44        -7.6165    4.7331   52.9079 H       1  ZINC000533037883    0.0800
     45 H45        -6.8815    3.3656   53.7797 H       1  ZINC000533037883    0.0700
     46 H46        -5.9951    4.4033   51.0491 H       1  ZINC000533037883    0.0700
     47 H47        -5.1653    4.7218   52.5910 H       1  ZINC000533037883    0.0700
     48 H48        -2.9023    4.8564   51.8264 H       1  ZINC000533037883    0.0800
     49 H49        -2.8823    3.5971   53.1078 H       1  ZINC000533037883    0.0800
     50 H50        -1.1036    3.8196   50.6180 H       1  ZINC000533037883    0.0600
     51 H51        -0.6105    3.4918   52.3068 H       1  ZINC000533037883    0.0900
     52 H52        -3.2663    0.8796   51.8032 H       1  ZINC000533037883    0.0700
     53 H53        -3.0159    1.1844   50.0628 H       1  ZINC000533037883    0.0700
     54 H54        -5.3952    0.7180   51.1071 H       1  ZINC000533037883    0.1000
     55 H55        -6.0013    2.0548   50.0957 H       1  ZINC000533037883    0.0700
@<TRIPOS>BOND
     1     1     2    2
     2     2     3   am
     3     2    17   am
     4     3     4    1
     5     3    30    1
     6     4     5    1
     7     4    31    1
     8     4    32    1
     9     5     6    1
    10     5    33    1
    11     5    34    1
    12     6    16    1
    13     6     7    2
    14     7     8    1
    15     7    35    1
    16     8     9    1
    17     8    15    1
    18     9    14   ar
    19     9    10   ar
    20    10    11   ar
    21    10    36    1
    22    11    12   ar
    23    11    37    1
    24    12    13   ar
    25    12    38    1
    26    13    14   ar
    27    13    39    1
    28    14    40    1
    29    15    16    2
    30    16    41    1
    31    17    29    1
    32    17    18    1
    33    18    19    1
    34    18    42    1
    35    18    43    1
    36    19    20    1
    37    19    44    1
    38    19    45    1
    39    20    21    1
    40    20    46    1
    41    20    47    1
    42    21    22    1
    43    21    23    1
    44    21    29    1
    45    23    24    1
    46    23    28    1
    47    23    25    1
    48    25    26    1
    49    25    48    1
    50    25    49    1
    51    26    27    1
    52    26    50    1
    53    26    51    1
    54    27    28    1
    55    28    52    1
    56    28    53    1
    57    29    54    1
    58    29    55    1
@<TRIPOS>SUBSTRUCTURE
     1 ZINC000533037883        1 TEMP              0 ****  ****    0 ROOT


##########                                Name:    ZINC000458730620
##########                DOCK_Rotatable_Bonds:                   9
##########                         Heavy_Atoms:                  25
##########                    Molecular_Weight:              375.44
##########                DOCK_Rotatable_Bonds:                   9
##########                       Formal_Charge:        -1.86265e-07
##########                     HBond_Acceptors:                   9
##########                        HBond_Donors:                   3
##########                         Heavy_Atoms:                  25
##########                          Grid_Score:          -32.513836
##########                     Grid_vdw_energy:          -31.157675
##########                      Grid_es_energy:           -1.356163
##########           Internal_energy_repulsive:           49.667767

@<TRIPOS>MOLECULE
ZINC000458730620
 48 49 1 0 0
SMALL
USER_CHARGES


@<TRIPOS>ATOM
      1 C1        -11.1785   -0.7700   54.9036 C.3     1  ZINC000458730620   -0.1600
      2 C2        -10.9642    0.6396   54.3483 C.3     1  ZINC000458730620    0.2000
      3 C3        -11.5211    1.6669   55.3359 C.3     1  ZINC000458730620   -0.1600
      4 N4         -9.5314    0.8755   54.1544 N.am    1  ZINC000458730620   -0.7400
      5 C5         -8.8441    0.1456   53.2536 C.2     1  ZINC000458730620    0.7100
      6 O6         -9.4129   -0.7098   52.6029 O.2     1  ZINC000458730620   -0.5800
      7 N7         -7.5263    0.3637   53.0740 N.am    1  ZINC000458730620   -0.7500
      8 C8         -6.7796   -0.4285   52.0937 C.3     1  ZINC000458730620    0.1300
      9 C9         -5.5856    0.3823   51.5857 C.3     1  ZINC000458730620    0.1000
     10 N10        -6.0374    1.7161   51.1818 N.am    1  ZINC000458730620   -1.1100
     11 S11        -4.9435    2.8267   50.6227 S.o2    1  ZINC000458730620    2.7000
     12 O12        -4.2363    2.1953   49.5642 O.2     1  ZINC000458730620   -0.9400
     13 O13        -5.6557    4.0459   50.4629 O.2     1  ZINC000458730620   -0.9400
     14 C14        -3.7725    3.0994   51.9106 C.ar    1  ZINC000458730620   -0.7300
     15 C15        -2.4445    2.7694   51.7179 C.ar    1  ZINC000458730620    0.0400
     16 C16        -1.5246    2.9832   52.7272 C.ar    1  ZINC000458730620   -0.1800
     17 C17        -1.9329    3.5284   53.9325 C.ar    1  ZINC000458730620    0.1900
     18 F18        -1.0335    3.7378   54.9187 F       1  ZINC000458730620   -0.1200
     19 C19        -3.2631    3.8595   54.1268 C.ar    1  ZINC000458730620   -0.2100
     20 C20        -4.1823    3.6497   53.1136 C.ar    1  ZINC000458730620    0.2200
     21 F21        -5.4806    3.9723   53.3017 F       1  ZINC000458730620   -0.1100
     22 C22       -11.6894    0.7754   53.0079 C.3     1  ZINC000458730620   -0.1100
     23 C23       -12.2154   -0.5593   52.4542 C.3     1  ZINC000458730620   -0.1400
     24 C24       -13.4752    0.2079   52.0191 C.3     1  ZINC000458730620   -0.1400
     25 C25       -13.1589    1.2080   53.1436 C.3     1  ZINC000458730620   -0.1400
     26 H26       -12.2385   -0.9235   55.1058 H       1  ZINC000458730620    0.0600
     27 H27       -10.8379   -1.5038   54.1731 H       1  ZINC000458730620    0.0500
     28 H28       -10.6116   -0.8866   55.8271 H       1  ZINC000458730620    0.0800
     29 H29       -11.0045    1.5700   56.2908 H       1  ZINC000458730620    0.0800
     30 H30       -11.3685    2.6710   54.9404 H       1  ZINC000458730620    0.0500
     31 H31       -12.5872    1.4913   55.4802 H       1  ZINC000458730620    0.0600
     32 H32        -9.0774    1.5570   54.6742 H       1  ZINC000458730620    0.3900
     33 H33        -7.0723    1.0452   53.5939 H       1  ZINC000458730620    0.4000
     34 H34        -6.4229   -1.3452   52.5631 H       1  ZINC000458730620    0.0800
     35 H35        -7.4313   -0.6788   51.2565 H       1  ZINC000458730620    0.0800
     36 H36        -4.8449    0.4747   52.3800 H       1  ZINC000458730620    0.0900
     37 H37        -5.1396   -0.1249   50.7303 H       1  ZINC000458730620    0.0700
     38 H38        -6.9771    1.9486   51.2416 H       1  ZINC000458730620    0.4300
     39 H39        -2.1252    2.3437   50.7781 H       1  ZINC000458730620    0.1700
     40 H40        -0.4871    2.7246   52.5756 H       1  ZINC000458730620    0.1600
     41 H41        -3.5824    4.2848   55.0667 H       1  ZINC000458730620    0.1600
     42 H42       -11.1275    1.3605   52.2800 H       1  ZINC000458730620    0.1100
     43 H43       -11.6305   -0.9469   51.6201 H       1  ZINC000458730620    0.0700
     44 H44       -12.4040   -1.3075   53.2241 H       1  ZINC000458730620    0.0800
     45 H45       -13.4018    0.6370   51.0198 H       1  ZINC000458730620    0.0800
     46 H46       -14.4002   -0.3470   52.1757 H       1  ZINC000458730620    0.0700
     47 H47       -13.6053    0.9429   54.1020 H       1  ZINC000458730620    0.0800
     48 H48       -13.3355    2.2471   52.8662 H       1  ZINC000458730620    0.0700
@<TRIPOS>BOND
     1     1     2    1
     2     1    26    1
     3     1    27    1
     4     1    28    1
     5     2     3    1
     6     2     4    1
     7     2    22    1
     8     3    29    1
     9     3    30    1
    10     3    31    1
    11     4     5   am
    12     4    32    1
    13     5     6    2
    14     5     7   am
    15     7     8    1
    16     7    33    1
    17     8     9    1
    18     8    34    1
    19     8    35    1
    20     9    10    1
    21     9    36    1
    22     9    37    1
    23    10    11   am
    24    10    38    1
    25    11    12    2
    26    11    13    2
    27    11    14    1
    28    14    20   ar
    29    14    15   ar
    30    15    16   ar
    31    15    39    1
    32    16    17   ar
    33    16    40    1
    34    17    18    1
    35    17    19   ar
    36    19    20   ar
    37    19    41    1
    38    20    21    1
    39    22    25    1
    40    22    23    1
    41    22    42    1
    42    23    24    1
    43    23    43    1
    44    23    44    1
    45    24    25    1
    46    24    45    1
    47    24    46    1
    48    25    47    1
    49    25    48    1
@<TRIPOS>SUBSTRUCTURE
     1 ZINC000458730620        1 TEMP              0 ****  ****    0 ROOT


##########                                Name:    ZINC000563265674
##########                DOCK_Rotatable_Bonds:                   7
##########                         Heavy_Atoms:                  25
##########                    Molecular_Weight:             386.859
##########                DOCK_Rotatable_Bonds:                   7
##########                       Formal_Charge:          0.00999963
##########                     HBond_Acceptors:                  10
##########                        HBond_Donors:                   2
##########                         Heavy_Atoms:                  25
##########                          Grid_Score:          -32.503338
##########                     Grid_vdw_energy:          -31.448162
##########                      Grid_es_energy:           -1.055177
##########           Internal_energy_repulsive:           13.653110

@<TRIPOS>MOLECULE
ZINC000563265674
 44 45 1 0 0
SMALL
USER_CHARGES


@<TRIPOS>ATOM
      1 C1         -5.8966    2.9181   56.6296 C.3     1  ZINC000563265674   -0.0600
      2 C2         -4.5225    3.4399   56.9623 C.2     1  ZINC000563265674    0.1700
      3 N3         -4.2255    4.6557   57.3119 N.2     1  ZINC000563265674   -0.3800
      4 O4         -3.0333    4.7554   57.5125 O.3     1  ZINC000563265674    0.0900
      5 C5         -2.4387    3.5769   57.3035 C.2     1  ZINC000563265674    0.1900
      6 C6         -0.9687    3.2760   57.4440 C.3     1  ZINC000563265674    0.2100
      7 C7         -0.3323    4.2807   58.4066 C.3     1  ZINC000563265674   -0.1400
      8 C8         -0.7883    1.8593   57.9928 C.3     1  ZINC000563265674   -0.1800
      9 N9         -0.3201    3.3785   56.1300 N.3     1  ZINC000563265674   -0.6600
     10 C10        -0.6766    4.6384   55.4638 C.3     1  ZINC000563265674    0.0400
     11 C11        -1.4976    4.3423   54.2354 C.2     1  ZINC000563265674    0.5200
     12 O12        -2.1691    5.2165   53.7295 O.2     1  ZINC000563265674   -0.4900
     13 N13        -1.4858    3.1060   53.6988 N.am    1  ZINC000563265674   -0.6700
     14 C14        -2.2485    2.8309   52.5577 C.ar    1  ZINC000563265674    0.1400
     15 C15        -3.6347    2.8615   52.6235 C.ar    1  ZINC000563265674   -0.0300
     16 C16        -4.3848    2.5900   51.4955 C.ar    1  ZINC000563265674   -0.6400
     17 S17        -6.1444    2.6292   51.5786 S.o2    1  ZINC000563265674    2.5000
     18 C18        -6.5892    1.1142   52.4718 C.3     1  ZINC000563265674   -0.6500
     19 O19        -6.4327    3.7757   52.3670 O.2     1  ZINC000563265674   -0.9300
     20 O20        -6.5611    2.5490   50.2225 O.2     1  ZINC000563265674   -0.9300
     21 C21        -3.7567    2.2879   50.3015 C.ar    1  ZINC000563265674   -0.0300
     22 C22        -2.3758    2.2559   50.2318 C.ar    1  ZINC000563265674   -0.1100
     23 C23        -1.6195    2.5320   51.3548 C.ar    1  ZINC000563265674   -0.0200
     24 Cl24        0.1138    2.4924   51.2668 Cl      1  ZINC000563265674   -0.0500
     25 N25        -3.3793    2.7314   56.9576 N.2     1  ZINC000563265674   -0.4700
     26 H26        -6.3747    2.5489   57.5370 H       1  ZINC000563265674    0.0900
     27 H27        -6.4972    3.7218   56.2037 H       1  ZINC000563265674    0.0900
     28 H28        -5.8119    2.1060   55.9074 H       1  ZINC000563265674    0.0900
     29 H29        -0.8136    4.2047   59.3816 H       1  ZINC000563265674    0.0800
     30 H30         0.7309    4.0631   58.5083 H       1  ZINC000563265674    0.0800
     31 H31        -0.4608    5.2900   58.0157 H       1  ZINC000563265674    0.0700
     32 H32        -1.2416    1.1436   57.3070 H       1  ZINC000563265674    0.0700
     33 H33         0.2749    1.6417   58.0944 H       1  ZINC000563265674    0.0800
     34 H34        -1.2696    1.7832   58.9678 H       1  ZINC000563265674    0.0800
     35 H35         0.6811    3.2839   56.2125 H       1  ZINC000563265674    0.3600
     36 H36        -1.2560    5.2593   56.1471 H       1  ZINC000563265674    0.1200
     37 H37         0.2321    5.1664   55.1750 H       1  ZINC000563265674    0.0800
     38 H38        -0.9488    2.4068   54.1034 H       1  ZINC000563265674    0.4200
     39 H39        -4.1265    3.0970   53.5558 H       1  ZINC000563265674    0.1700
     40 H40        -6.1347    1.1297   53.4623 H       1  ZINC000563265674    0.1300
     41 H41        -7.6731    1.0555   52.5703 H       1  ZINC000563265674    0.1400
     42 H42        -6.2270    0.2471   51.9194 H       1  ZINC000563265674    0.1400
     43 H43        -4.3457    2.0760   49.4215 H       1  ZINC000563265674    0.1500
     44 H44        -1.8881    2.0193   49.2976 H       1  ZINC000563265674    0.1500
@<TRIPOS>BOND
     1     1     2    1
     2     1    26    1
     3     1    27    1
     4     1    28    1
     5     2    25    1
     6     2     3    2
     7     3     4    1
     8     4     5    1
     9     5     6    1
    10     5    25    2
    11     6     7    1
    12     6     8    1
    13     6     9    1
    14     7    29    1
    15     7    30    1
    16     7    31    1
    17     8    32    1
    18     8    33    1
    19     8    34    1
    20     9    10    1
    21     9    35    1
    22    10    11    1
    23    10    36    1
    24    10    37    1
    25    11    12    2
    26    11    13   am
    27    13    14    1
    28    13    38    1
    29    14    23   ar
    30    14    15   ar
    31    15    16   ar
    32    15    39    1
    33    16    17    1
    34    16    21   ar
    35    17    18    1
    36    17    19    2
    37    17    20    2
    38    18    40    1
    39    18    41    1
    40    18    42    1
    41    21    22   ar
    42    21    43    1
    43    22    23   ar
    44    22    44    1
    45    23    24    1
@<TRIPOS>SUBSTRUCTURE
     1 ZINC000563265674        1 TEMP              0 ****  ****    0 ROOT


##########                                Name:    ZINC001707804910
##########                DOCK_Rotatable_Bonds:                   4
##########                         Heavy_Atoms:                  26
##########                    Molecular_Weight:             358.403
##########                DOCK_Rotatable_Bonds:                   4
##########                       Formal_Charge:          -0.0399996
##########                     HBond_Acceptors:                  10
##########                        HBond_Donors:                   0
##########                         Heavy_Atoms:                  26
##########                          Grid_Score:          -32.497498
##########                     Grid_vdw_energy:          -31.567602
##########                      Grid_es_energy:           -0.929897
##########           Internal_energy_repulsive:            6.920440

@<TRIPOS>MOLECULE
ZINC001707804910
 48 51 1 0 0
SMALL
USER_CHARGES


@<TRIPOS>ATOM
      1 C1         -9.3914    1.5605   54.4420 C.3     1  ZINC001707804910   -0.0700
      2 C2         -8.3878    1.3342   53.3409 C.2     1  ZINC001707804910    0.0700
      3 N3         -7.8460    0.1872   53.0204 N.2     1  ZINC001707804910   -0.2800
      4 N4         -6.9700    0.4012   51.9484 N.pl3   1  ZINC001707804910   -0.3700
      5 C5         -6.1583   -0.6200   51.2816 C.3     1  ZINC001707804910    0.0900
      6 C6         -7.0058    1.7141   51.6384 C.2     1  ZINC001707804910    0.0500
      7 C7         -6.2189    2.3909   50.5459 C.3     1  ZINC001707804910    0.1800
      8 N8         -6.0810    3.8163   50.8546 N.pl3   1  ZINC001707804910   -0.4600
      9 C9         -6.9411    4.8223   50.5113 C.2     1  ZINC001707804910    0.1900
     10 C10        -8.2246    4.6742   49.7355 C.3     1  ZINC001707804910   -0.0700
     11 N11        -6.4458    5.9325   50.9799 N.2     1  ZINC001707804910   -0.2800
     12 N12        -5.3397    5.6982   51.5912 N.2     1  ZINC001707804910   -0.3000
     13 C13        -5.0705    4.4147   51.5493 C.2     1  ZINC001707804910    0.3500
     14 N14        -3.9644    3.7866   52.0994 N.3     1  ZINC001707804910   -0.4600
     15 C15        -3.5498    4.4461   53.3461 C.3     1  ZINC001707804910    0.0200
     16 C16        -2.3656    3.6864   53.9497 C.3     1  ZINC001707804910    0.0700
     17 O17        -1.3060    3.6259   52.9910 O.3     1  ZINC001707804910   -0.3600
     18 C18        -1.6748    2.9891   51.7647 C.3     1  ZINC001707804910    0.2000
     19 H19        -1.9665    1.9578   51.9634 H       1  ZINC001707804910    0.1000
     20 C20        -0.5038    3.0071   50.8163 C.2     1  ZINC001707804910    0.1600
     21 N21        -0.2059    2.0885   49.9419 N.2     1  ZINC001707804910   -0.2500
     22 N22         0.8576    2.4340   49.3052 N.2     1  ZINC001707804910   -0.2900
     23 C23         1.2741    3.5847   49.7519 C.2     1  ZINC001707804910    0.1700
     24 C24         2.4871    4.3407   49.2740 C.3     1  ZINC001707804910   -0.0600
     25 O25         0.4212    3.9761   50.7134 O.3     1  ZINC001707804910   -0.2200
     26 C26        -2.8522    3.7417   51.1391 C.3     1  ZINC001707804910    0.0400
     27 C27        -7.8791    2.3130   52.4809 C.2     1  ZINC001707804910   -0.2300
     28 H28       -10.3992    1.4327   54.0471 H       1  ZINC001707804910    0.0800
     29 H29        -9.2209    0.8406   55.2426 H       1  ZINC001707804910    0.0700
     30 H30        -9.2799    2.5718   54.8331 H       1  ZINC001707804910    0.0800
     31 H31        -6.7589   -1.1243   50.5246 H       1  ZINC001707804910    0.0800
     32 H32        -5.2979   -0.1477   50.8075 H       1  ZINC001707804910    0.0900
     33 H33        -5.8142   -1.3477   52.0166 H       1  ZINC001707804910    0.0900
     34 H34        -5.2304    1.9369   50.4756 H       1  ZINC001707804910    0.1100
     35 H35        -6.7409    2.2736   49.5962 H       1  ZINC001707804910    0.1200
     36 H36        -9.0295    4.3938   50.4149 H       1  ZINC001707804910    0.0900
     37 H37        -8.4691    5.6207   49.2536 H       1  ZINC001707804910    0.1000
     38 H38        -8.1035    3.9009   48.9769 H       1  ZINC001707804910    0.0700
     39 H39        -3.2531    5.4732   53.1335 H       1  ZINC001707804910    0.0700
     40 H40        -4.3805    4.4454   54.0519 H       1  ZINC001707804910    0.0900
     41 H41        -2.0183    4.2044   54.8437 H       1  ZINC001707804910    0.1200
     42 H42        -2.6772    2.6754   54.2120 H       1  ZINC001707804910    0.0700
     43 H43         2.2032    5.0037   48.4567 H       1  ZINC001707804910    0.1000
     44 H44         2.8948    4.9301   50.0952 H       1  ZINC001707804910    0.1000
     45 H45         3.2406    3.6350   48.9243 H       1  ZINC001707804910    0.1100
     46 H46        -3.1735    3.2268   50.2337 H       1  ZINC001707804910    0.1000
     47 H47        -2.5443    4.7575   50.8910 H       1  ZINC001707804910    0.0800
     48 H48        -8.1336    3.3626   52.4915 H       1  ZINC001707804910    0.1500
@<TRIPOS>BOND
     1     1     2    1
     2     1    28    1
     3     1    29    1
     4     1    30    1
     5     2    27    1
     6     2     3    2
     7     3     4    1
     8     4     5    1
     9     4     6    1
    10     5    31    1
    11     5    32    1
    12     5    33    1
    13     6     7    1
    14     6    27    2
    15     7     8    1
    16     7    34    1
    17     7    35    1
    18     8    13    1
    19     8     9    1
    20     9    10    1
    21     9    11    2
    22    10    36    1
    23    10    37    1
    24    10    38    1
    25    11    12    1
    26    12    13    2
    27    13    14    1
    28    14    26    1
    29    14    15    1
    30    15    16    1
    31    15    39    1
    32    15    40    1
    33    16    17    1
    34    16    41    1
    35    16    42    1
    36    17    18    1
    37    18    19    1
    38    18    20    1
    39    18    26    1
    40    20    25    1
    41    20    21    2
    42    21    22    1
    43    22    23    2
    44    23    24    1
    45    23    25    1
    46    24    43    1
    47    24    44    1
    48    24    45    1
    49    26    46    1
    50    26    47    1
    51    27    48    1
@<TRIPOS>SUBSTRUCTURE
     1 ZINC001707804910        1 TEMP              0 ****  ****    0 ROOT


##########                                Name:    ZINC000007167963
##########                DOCK_Rotatable_Bonds:                   8
##########                         Heavy_Atoms:                  25
##########                    Molecular_Weight:             378.433
##########                DOCK_Rotatable_Bonds:                   8
##########                       Formal_Charge:        -1.01328e-06
##########                     HBond_Acceptors:                  10
##########                        HBond_Donors:                   3
##########                         Heavy_Atoms:                  25
##########                          Grid_Score:          -32.484283
##########                     Grid_vdw_energy:          -28.879213
##########                      Grid_es_energy:           -3.605068
##########           Internal_energy_repulsive:            8.096901

@<TRIPOS>MOLECULE
ZINC000007167963
 39 41 1 0 0
SMALL
USER_CHARGES


@<TRIPOS>ATOM
      1 C1        -13.1643   -0.4260   53.2912 C.3     1  ZINC000007167963   -0.0800
      2 C2        -12.8140    1.0174   53.0361 C.2     1  ZINC000007167963    0.0900
      3 C3        -11.5706    1.4982   52.7621 C.2     1  ZINC000007167963   -0.1500
      4 C4        -10.3169    0.7227   52.6570 C.2     1  ZINC000007167963    0.2600
      5 N5        -10.1959   -0.5770   52.7769 N.2     1  ZINC000007167963   -0.2700
      6 N6         -8.9616   -0.9074   52.6267 N.2     1  ZINC000007167963   -0.2800
      7 C7         -8.2451    0.1684   52.4048 C.2     1  ZINC000007167963    0.1200
      8 S8         -6.5045    0.2250   52.1365 S.3     1  ZINC000007167963    0.1500
      9 C9         -6.2770    2.0082   51.9247 C.3     1  ZINC000007167963   -0.1200
     10 H10        -7.0379    2.3935   51.2459 H       1  ZINC000007167963    0.1400
     11 C11        -6.4050    2.7033   53.2817 C.3     1  ZINC000007167963   -0.1500
     12 C12        -4.9096    2.2754   51.3504 C.2     1  ZINC000007167963    0.5300
     13 O13        -4.8010    2.7917   50.2584 O.2     1  ZINC000007167963   -0.4900
     14 N14        -3.8076    1.9406   52.0503 N.am    1  ZINC000007167963   -0.6100
     15 C15        -2.5494    2.1881   51.5226 C.2     1  ZINC000007167963    0.0800
     16 C16        -1.6276    3.0408   52.0722 C.2     1  ZINC000007167963   -0.2400
     17 C17        -1.8614    3.8056   53.3011 C.2     1  ZINC000007167963    0.5900
     18 N18        -1.4593    3.3118   54.4890 N.am    1  ZINC000007167963   -0.8400
     19 O19        -2.4185    4.8864   53.2486 O.2     1  ZINC000007167963   -0.5600
     20 C20        -0.3993    3.1049   51.3112 C.2     1  ZINC000007167963   -0.0900
     21 C21        -0.4105    2.3285   50.2370 C.2     1  ZINC000007167963   -0.2800
     22 S22        -1.9341    1.4684   50.1054 S.3     1  ZINC000007167963    0.3000
     23 O23        -9.0851    1.2220   52.4138 O.3     1  ZINC000007167963   -0.2000
     24 C24       -11.7336    2.9479   52.5917 C.2     1  ZINC000007167963   -0.1800
     25 C25       -13.0401    3.1982   52.7765 C.2     1  ZINC000007167963   -0.0300
     26 O26       -13.6751    2.0450   53.0347 O.3     1  ZINC000007167963   -0.1700
     27 H27       -14.2348   -0.5126   53.4774 H       1  ZINC000007167963    0.0800
     28 H28       -12.8975   -1.0242   52.4199 H       1  ZINC000007167963    0.1000
     29 H29       -12.6140   -0.7852   54.1609 H       1  ZINC000007167963    0.1000
     30 H30        -7.3941    2.5100   53.6971 H       1  ZINC000007167963    0.0900
     31 H31        -5.6442    2.3180   53.9604 H       1  ZINC000007167963    0.0800
     32 H32        -6.2681    3.7771   53.1541 H       1  ZINC000007167963    0.0800
     33 H33        -3.8946    1.5266   52.9232 H       1  ZINC000007167963    0.4400
     34 H34        -1.6151    3.8174   55.3021 H       1  ZINC000007167963    0.4000
     35 H35        -1.0143    2.4510   54.5309 H       1  ZINC000007167963    0.4100
     36 H36         0.4413    3.7232   51.5894 H       1  ZINC000007167963    0.1500
     37 H37         0.4088    2.2350   49.5394 H       1  ZINC000007167963    0.1700
     38 H38       -10.9600    3.6665   52.3646 H       1  ZINC000007167963    0.1600
     39 H39       -13.5055    4.1713   52.7218 H       1  ZINC000007167963    0.2200
@<TRIPOS>BOND
     1     1     2    1
     2     1    27    1
     3     1    28    1
     4     1    29    1
     5     2    26    1
     6     2     3    2
     7     3     4    1
     8     3    24    1
     9     4    23    1
    10     4     5    2
    11     5     6    1
    12     6     7    2
    13     7     8    1
    14     7    23    1
    15     8     9    1
    16     9    10    1
    17     9    11    1
    18     9    12    1
    19    11    30    1
    20    11    31    1
    21    11    32    1
    22    12    13    2
    23    12    14   am
    24    14    15    1
    25    14    33    1
    26    15    22    1
    27    15    16    2
    28    16    17    1
    29    16    20    1
    30    17    18   am
    31    17    19    2
    32    18    34    1
    33    18    35    1
    34    20    21    2
    35    20    36    1
    36    21    22    1
    37    21    37    1
    38    24    25    2
    39    24    38    1
    40    25    26    1
    41    25    39    1
@<TRIPOS>SUBSTRUCTURE
     1 ZINC000007167963        1 TEMP              0 ****  ****    0 ROOT


##########                                Name:    ZINC000980108339
##########                DOCK_Rotatable_Bonds:                   9
##########                         Heavy_Atoms:                  25
##########                    Molecular_Weight:             348.445
##########                DOCK_Rotatable_Bonds:                   9
##########                       Formal_Charge:          -0.0100001
##########                     HBond_Acceptors:                   7
##########                        HBond_Donors:                   3
##########                         Heavy_Atoms:                  25
##########                          Grid_Score:          -32.482464
##########                     Grid_vdw_energy:          -31.794588
##########                      Grid_es_energy:           -0.687877
##########           Internal_energy_repulsive:            7.092049

@<TRIPOS>MOLECULE
ZINC000980108339
 53 56 1 0 0
SMALL
USER_CHARGES


@<TRIPOS>ATOM
      1 C1         -3.1870    2.6610   51.9248 C.3     1  ZINC000980108339    0.1200
      2 N2         -4.4631    2.1336   51.4352 N.am    1  ZINC000980108339   -0.6400
      3 C3         -4.9341    0.7507   51.6032 C.3     1  ZINC000980108339    0.1100
      4 C4         -6.3106    0.7428   50.9102 C.3     1  ZINC000980108339    0.1000
      5 H5         -6.3150    0.0411   50.0760 H       1  ZINC000980108339    0.1200
      6 C6         -7.3970    0.3973   51.8959 C.2     1  ZINC000980108339    0.5000
      7 O7         -7.7676   -0.7517   52.0118 O.2     1  ZINC000980108339   -0.5200
      8 N8         -7.9566    1.3651   52.6486 N.am    1  ZINC000980108339   -0.7200
      9 C9         -9.0138    1.0295   53.6056 C.3     1  ZINC000980108339    0.1300
     10 C10       -10.3321    0.8221   52.8573 C.3     1  ZINC000980108339   -0.1200
     11 H11       -10.3481    1.3129   51.8841 H       1  ZINC000980108339    0.1000
     12 C12       -10.7924   -0.6445   52.8152 C.3     1  ZINC000980108339   -0.1400
     13 C13       -12.2199   -0.1209   53.0456 C.3     1  ZINC000980108339    0.1200
     14 H14       -12.8048   -0.7346   53.7308 H       1  ZINC000980108339    0.1100
     15 N15       -12.9376    0.1907   51.8071 N.am    1  ZINC000980108339   -0.7200
     16 C16       -14.2705    0.0042   51.7354 C.2     1  ZINC000980108339    0.5200
     17 O17       -14.8760   -0.4204   52.6968 O.2     1  ZINC000980108339   -0.5300
     18 C18       -15.0086    0.3231   50.4607 C.3     1  ZINC000980108339   -0.1100
     19 C19       -14.9756   -0.8939   49.5341 C.3     1  ZINC000980108339   -0.1300
     20 H20       -14.0328   -1.4404   49.5092 H       1  ZINC000980108339    0.1200
     21 C21       -15.7809   -0.8151   48.2356 C.3     1  ZINC000980108339   -0.1700
     22 C22       -16.2654   -1.7031   49.3845 C.3     1  ZINC000980108339   -0.1200
     23 H23       -17.1376   -1.3683   49.9459 H       1  ZINC000980108339    0.1000
     24 C24       -16.1338   -3.2174   49.2106 C.3     1  ZINC000980108339   -0.1300
     25 C25       -17.3787   -4.0689   49.4687 C.3     1  ZINC000980108339   -0.1800
     26 C26       -16.8769   -3.8612   48.0383 C.3     1  ZINC000980108339   -0.1800
     27 C27       -11.5776    1.1091   53.7124 C.3     1  ZINC000980108339   -0.1400
     28 N28        -6.4689    2.1220   50.4254 N.am    1  ZINC000980108339   -0.7200
     29 C29        -5.3885    2.8358   50.7684 C.2     1  ZINC000980108339    0.7000
     30 O30        -5.2560    4.0123   50.4915 O.2     1  ZINC000980108339   -0.5800
     31 H31        -3.1052    3.7158   51.6625 H       1  ZINC000980108339    0.0900
     32 H32        -3.1404    2.5515   53.0084 H       1  ZINC000980108339    0.0600
     33 H33        -2.3661    2.1082   51.4681 H       1  ZINC000980108339    0.0600
     34 H34        -4.2550    0.0530   51.1130 H       1  ZINC000980108339    0.1000
     35 H35        -5.0368    0.5072   52.6606 H       1  ZINC000980108339    0.0900
     36 H36        -7.6592    2.2839   52.5569 H       1  ZINC000980108339    0.4000
     37 H37        -8.7482    0.1141   54.1342 H       1  ZINC000980108339    0.0700
     38 H38        -9.1269    1.8431   54.3221 H       1  ZINC000980108339    0.0700
     39 H39       -10.6527   -1.1184   51.8436 H       1  ZINC000980108339    0.0800
     40 H40       -10.4096   -1.2461   53.6397 H       1  ZINC000980108339    0.1000
     41 H41       -12.4536    0.5314   51.0386 H       1  ZINC000980108339    0.4000
     42 H42       -16.0433    0.5746   50.6934 H       1  ZINC000980108339    0.1000
     43 H43       -14.5313    1.1692   49.9665 H       1  ZINC000980108339    0.1000
     44 H44       -16.3343    0.1038   48.0416 H       1  ZINC000980108339    0.0900
     45 H45       -15.3682   -1.3101   47.3566 H       1  ZINC000980108339    0.1000
     46 H46       -15.1681   -3.6403   49.4877 H       1  ZINC000980108339    0.1000
     47 H47       -17.2319   -5.0523   49.9157 H       1  ZINC000980108339    0.0900
     48 H48       -18.2911   -3.5502   49.7623 H       1  ZINC000980108339    0.0900
     49 H49       -17.4594   -3.2058   47.3908 H       1  ZINC000980108339    0.0900
     50 H50       -16.4002   -4.7078   47.5443 H       1  ZINC000980108339    0.0900
     51 H51       -11.4092    0.9875   54.7824 H       1  ZINC000980108339    0.1000
     52 H52       -12.0723    2.0482   53.4647 H       1  ZINC000980108339    0.0800
     53 H53        -7.2357    2.4620   49.9383 H       1  ZINC000980108339    0.4400
@<TRIPOS>BOND
     1     1     2    1
     2     1    31    1
     3     1    32    1
     4     1    33    1
     5     2    29   am
     6     2     3    1
     7     3     4    1
     8     3    34    1
     9     3    35    1
    10     4     5    1
    11     4     6    1
    12     4    28    1
    13     6     7    2
    14     6     8   am
    15     8     9    1
    16     8    36    1
    17     9    10    1
    18     9    37    1
    19     9    38    1
    20    10    11    1
    21    10    27    1
    22    10    12    1
    23    12    13    1
    24    12    39    1
    25    12    40    1
    26    13    14    1
    27    13    15    1
    28    13    27    1
    29    15    16   am
    30    15    41    1
    31    16    17    2
    32    16    18    1
    33    18    19    1
    34    18    42    1
    35    18    43    1
    36    19    20    1
    37    19    22    1
    38    19    21    1
    39    21    22    1
    40    21    44    1
    41    21    45    1
    42    22    23    1
    43    22    24    1
    44    24    26    1
    45    24    25    1
    46    24    46    1
    47    25    26    1
    48    25    47    1
    49    25    48    1
    50    26    49    1
    51    26    50    1
    52    27    51    1
    53    27    52    1
    54    28    29   am
    55    28    53    1
    56    29    30    2
@<TRIPOS>SUBSTRUCTURE
     1 ZINC000980108339        1 TEMP              0 ****  ****    0 ROOT


##########                                Name:    ZINC001141221454
##########                DOCK_Rotatable_Bonds:                   7
##########                         Heavy_Atoms:                  27
##########                    Molecular_Weight:             369.439
##########                DOCK_Rotatable_Bonds:                   7
##########                       Formal_Charge:          0.00999935
##########                     HBond_Acceptors:                   6
##########                        HBond_Donors:                   1
##########                         Heavy_Atoms:                  27
##########                          Grid_Score:          -32.453388
##########                     Grid_vdw_energy:          -31.541113
##########                      Grid_es_energy:           -0.912276
##########           Internal_energy_repulsive:           14.266499

@<TRIPOS>MOLECULE
ZINC001141221454
 51 54 1 0 0
SMALL
USER_CHARGES


@<TRIPOS>ATOM
      1 C1          3.3807    1.7301   57.9162 C.3     1  ZINC001141221454    0.0300
      2 O2          2.6291    2.5115   56.9853 O.3     1  ZINC001141221454   -0.3100
      3 C3          1.2857    2.5823   57.1819 C.ar    1  ZINC001141221454    0.0900
      4 C4          0.6824    1.7903   58.1464 C.ar    1  ZINC001141221454   -0.1800
      5 C5         -0.6836    1.8642   58.3450 C.ar    1  ZINC001141221454   -0.0900
      6 C6         -1.4490    2.7269   57.5832 C.ar    1  ZINC001141221454   -0.1200
      7 C7         -0.8513    3.5185   56.6195 C.ar    1  ZINC001141221454   -0.0800
      8 C8         -1.6890    4.4575   55.7904 C.3     1  ZINC001141221454    0.0900
      9 N9         -2.5735    3.6794   54.9129 N.3     1  ZINC001141221454   -0.5100
     10 C10        -3.8383    4.4122   54.6465 C.3     1  ZINC001141221454    0.0300
     11 C11        -4.3706    3.7480   53.3500 C.3     1  ZINC001141221454   -0.0700
     12 C12        -3.0804    3.4731   52.5559 C.3     1  ZINC001141221454   -0.1000
     13 C13        -2.8782    4.0429   51.1579 C.3     1  ZINC001141221454   -0.1400
     14 C14        -3.0777    2.5372   51.3543 C.3     1  ZINC001141221454   -0.1800
     15 H15        -2.2091    1.8925   51.2203 H       1  ZINC001141221454    0.1300
     16 C16        -4.3971    1.9480   50.9267 C.2     1  ZINC001141221454    0.5500
     17 O17        -4.9520    2.3623   49.9310 O.2     1  ZINC001141221454   -0.5300
     18 N18        -4.9604    0.9605   51.6505 N.am    1  ZINC001141221454   -0.7300
     19 C19        -6.2439    0.3889   51.2358 C.3     1  ZINC001141221454    0.1700
     20 C20        -7.3260    0.8464   52.1797 C.ar    1  ZINC001141221454   -0.1600
     21 C21        -7.5791    2.1980   52.3552 C.ar    1  ZINC001141221454   -0.0600
     22 C22        -8.5847    2.5725   53.2335 C.ar    1  ZINC001141221454   -0.1700
     23 C23        -9.2960    1.5932   53.8999 C.ar    1  ZINC001141221454    0.1100
     24 N24        -9.0277    0.3161   53.7083 N.ar    1  ZINC001141221454   -0.4800
     25 C25        -8.0825   -0.0767   52.8771 C.ar    1  ZINC001141221454    0.1200
     26 C26        -1.9472    3.4582   53.5892 C.3     1  ZINC001141221454    0.0700
     27 C27         0.5157    3.4529   56.4204 C.ar    1  ZINC001141221454    0.0900
     28 F28         1.1001    4.2260   55.4791 F       1  ZINC001141221454   -0.1300
     29 H29         4.4361    1.7577   57.6451 H       1  ZINC001141221454    0.1000
     30 H30         3.2526    2.1373   58.9192 H       1  ZINC001141221454    0.0600
     31 H31         3.0268    0.6994   57.8946 H       1  ZINC001141221454    0.0600
     32 H32         1.2791    1.1156   58.7422 H       1  ZINC001141221454    0.1400
     33 H33        -1.1534    1.2468   59.0963 H       1  ZINC001141221454    0.1300
     34 H34        -2.5160    2.7826   57.7406 H       1  ZINC001141221454    0.1300
     35 H35        -2.2902    5.0851   56.4482 H       1  ZINC001141221454    0.0600
     36 H36        -1.0373    5.0865   55.1840 H       1  ZINC001141221454    0.0900
     37 H37        -4.5428    4.2735   55.4665 H       1  ZINC001141221454    0.0800
     38 H38        -3.6414    5.4717   54.4826 H       1  ZINC001141221454    0.0500
     39 H39        -4.8898    2.8171   53.5778 H       1  ZINC001141221454    0.0900
     40 H40        -5.0217    4.4314   52.8049 H       1  ZINC001141221454    0.0700
     41 H41        -3.7017    4.6070   50.7201 H       1  ZINC001141221454    0.1000
     42 H42        -1.8784    4.3883   50.8946 H       1  ZINC001141221454    0.1100
     43 H43        -4.5159    0.6283   52.4462 H       1  ZINC001141221454    0.4000
     44 H44        -6.4797    0.7205   50.2247 H       1  ZINC001141221454    0.0800
     45 H45        -6.1805   -0.6991   51.2559 H       1  ZINC001141221454    0.0800
     46 H46        -7.0066    2.9417   51.8208 H       1  ZINC001141221454    0.1400
     47 H47        -8.8089    3.6166   53.3949 H       1  ZINC001141221454    0.1400
     48 H48       -10.0805    1.8766   54.5859 H       1  ZINC001141221454    0.1600
     49 H49        -7.8914   -1.1315   52.7463 H       1  ZINC001141221454    0.1600
     50 H50        -1.2366    4.2566   53.3749 H       1  ZINC001141221454    0.0500
     51 H51        -1.4404    2.4934   53.5730 H       1  ZINC001141221454    0.0900
@<TRIPOS>BOND
     1     1     2    1
     2     1    29    1
     3     1    30    1
     4     1    31    1
     5     2     3    1
     6     3    27   ar
     7     3     4   ar
     8     4     5   ar
     9     4    32    1
    10     5     6   ar
    11     5    33    1
    12     6     7   ar
    13     6    34    1
    14     7     8    1
    15     7    27   ar
    16     8     9    1
    17     8    35    1
    18     8    36    1
    19     9    26    1
    20     9    10    1
    21    10    11    1
    22    10    37    1
    23    10    38    1
    24    11    12    1
    25    11    39    1
    26    11    40    1
    27    12    14    1
    28    12    13    1
    29    12    26    1
    30    13    14    1
    31    13    41    1
    32    13    42    1
    33    14    15    1
    34    14    16    1
    35    16    17    2
    36    16    18   am
    37    18    19    1
    38    18    43    1
    39    19    20    1
    40    19    44    1
    41    19    45    1
    42    20    25   ar
    43    20    21   ar
    44    21    22   ar
    45    21    46    1
    46    22    23   ar
    47    22    47    1
    48    23    24   ar
    49    23    48    1
    50    24    25   ar
    51    25    49    1
    52    26    50    1
    53    26    51    1
    54    27    28    1
@<TRIPOS>SUBSTRUCTURE
     1 ZINC001141221454        1 TEMP              0 ****  ****    0 ROOT


##########                                Name:    ZINC000859496582
##########                DOCK_Rotatable_Bonds:                  10
##########                         Heavy_Atoms:                  26
##########                    Molecular_Weight:             361.438
##########                DOCK_Rotatable_Bonds:                  10
##########                       Formal_Charge:           0.0100006
##########                     HBond_Acceptors:                   6
##########                        HBond_Donors:                   0
##########                         Heavy_Atoms:                  26
##########                          Grid_Score:          -32.436817
##########                     Grid_vdw_energy:          -32.071251
##########                      Grid_es_energy:           -0.365568
##########           Internal_energy_repulsive:           12.281067

@<TRIPOS>MOLECULE
ZINC000859496582
 53 54 1 0 0
SMALL
USER_CHARGES


@<TRIPOS>ATOM
      1 C1          5.7918   -0.0564   51.3969 C.3     1  ZINC000859496582    0.0300
      2 O2          4.3514   -0.0569   51.2133 O.3     1  ZINC000859496582   -0.3600
      3 C3          3.7591    1.1347   51.0380 C.2     1  ZINC000859496582    0.4600
      4 O4          4.4220    2.1448   51.0385 O.2     1  ZINC000859496582   -0.5100
      5 C5          2.2671    1.2128   50.8406 C.3     1  ZINC000859496582   -0.1100
      6 C6          1.7484    2.5421   51.3929 C.3     1  ZINC000859496582   -0.1100
      7 C7          0.2322    2.6168   51.2019 C.3     1  ZINC000859496582   -0.1200
      8 C8         -0.2865    3.9458   51.7549 C.3     1  ZINC000859496582    0.0700
      9 O9         -1.7240    4.0213   51.5641 O.3     1  ZINC000859496582   -0.3500
     10 C10        -2.4894    3.3230   52.4174 C.2     1  ZINC000859496582    0.4700
     11 O11        -2.0071    2.8661   53.4265 O.2     1  ZINC000859496582   -0.5000
     12 C12        -3.9505    3.1088   52.1166 C.3     1  ZINC000859496582   -0.1000
     13 H13        -4.5214    3.1401   53.0446 H       1  ZINC000859496582    0.1200
     14 C14        -4.1396    1.7461   51.4462 C.3     1  ZINC000859496582   -0.1100
     15 C15        -5.6268    1.5134   51.1701 C.3     1  ZINC000859496582   -0.1300
     16 C16        -6.1405    2.5968   50.2166 C.3     1  ZINC000859496582    0.1100
     17 N17        -5.8318    3.9148   50.7879 N.am    1  ZINC000859496582   -0.6100
     18 C18        -6.8021    4.8352   50.9548 C.2     1  ZINC000859496582    0.5700
     19 O19        -6.5339    5.9220   51.4286 O.2     1  ZINC000859496582   -0.5300
     20 C20        -8.1927    4.5230   50.5615 C.ar    1  ZINC000859496582   -0.1400
     21 C21        -9.0826    3.9907   51.4958 C.ar    1  ZINC000859496582   -0.0900
     22 C22       -10.3790    3.7021   51.1224 C.ar    1  ZINC000859496582   -0.1200
     23 C23       -10.7975    3.9387   49.8250 C.ar    1  ZINC000859496582   -0.0600
     24 C24       -12.2149    3.6206   49.4242 C.3     1  ZINC000859496582   -0.1200
     25 C25        -9.9205    4.4667   48.8942 C.ar    1  ZINC000859496582   -0.1200
     26 C26        -8.6229    4.7647   49.2559 C.ar    1  ZINC000859496582   -0.0600
     27 C27        -4.4455    4.2107   51.1744 C.3     1  ZINC000859496582    0.1100
     28 H28         6.0452    0.5293   52.2805 H       1  ZINC000859496582    0.0600
     29 H29         6.1418   -1.0805   51.5271 H       1  ZINC000859496582    0.1000
     30 H30         6.2696    0.3821   50.5209 H       1  ZINC000859496582    0.0600
     31 H31         2.0373    1.1468   49.7772 H       1  ZINC000859496582    0.1100
     32 H32         1.7871    0.3883   51.3679 H       1  ZINC000859496582    0.1100
     33 H33         1.9848    2.6114   52.4546 H       1  ZINC000859496582    0.0800
     34 H34         2.2227    3.3666   50.8605 H       1  ZINC000859496582    0.0800
     35 H35        -0.0041    2.5481   50.1402 H       1  ZINC000859496582    0.0800
     36 H36        -0.2421    1.7921   51.7339 H       1  ZINC000859496582    0.0800
     37 H37        -0.0573    4.0111   52.8186 H       1  ZINC000859496582    0.0700
     38 H38         0.1938    4.7705   51.2284 H       1  ZINC000859496582    0.0700
     39 H39        -3.5879    1.7240   50.5064 H       1  ZINC000859496582    0.0800
     40 H40        -3.7657    0.9623   52.1050 H       1  ZINC000859496582    0.0800
     41 H41        -5.7631    0.5329   50.7141 H       1  ZINC000859496582    0.0900
     42 H42        -6.1824    1.5599   52.1068 H       1  ZINC000859496582    0.0700
     43 H43        -5.6501    2.4941   49.2486 H       1  ZINC000859496582    0.0700
     44 H44        -7.2190    2.4949   50.0948 H       1  ZINC000859496582    0.1000
     45 H45        -8.7570    3.8048   52.5086 H       1  ZINC000859496582    0.1300
     46 H46       -11.0686    3.2901   51.8443 H       1  ZINC000859496582    0.1300
     47 H47       -12.8451    4.4935   49.5938 H       1  ZINC000859496582    0.0800
     48 H48       -12.2423    3.3524   48.3681 H       1  ZINC000859496582    0.0700
     49 H49       -12.5824    2.7856   50.0207 H       1  ZINC000859496582    0.0700
     50 H50       -10.2534    4.6494   47.8832 H       1  ZINC000859496582    0.1300
     51 H51        -7.9394    5.1771   48.5284 H       1  ZINC000859496582    0.1300
     52 H52        -4.4058    5.1734   51.6841 H       1  ZINC000859496582    0.1100
     53 H53        -3.8163    4.2396   50.2848 H       1  ZINC000859496582    0.0800
@<TRIPOS>BOND
     1     1     2    1
     2     1    28    1
     3     1    29    1
     4     1    30    1
     5     2     3    1
     6     3     4    2
     7     3     5    1
     8     5     6    1
     9     5    31    1
    10     5    32    1
    11     6     7    1
    12     6    33    1
    13     6    34    1
    14     7     8    1
    15     7    35    1
    16     7    36    1
    17     8     9    1
    18     8    37    1
    19     8    38    1
    20     9    10    1
    21    10    11    2
    22    10    12    1
    23    12    13    1
    24    12    27    1
    25    12    14    1
    26    14    15    1
    27    14    39    1
    28    14    40    1
    29    15    16    1
    30    15    41    1
    31    15    42    1
    32    16    17    1
    33    16    43    1
    34    16    44    1
    35    17    18   am
    36    17    27    1
    37    18    19    2
    38    18    20    1
    39    20    26   ar
    40    20    21   ar
    41    21    22   ar
    42    21    45    1
    43    22    23   ar
    44    22    46    1
    45    23    24    1
    46    23    25   ar
    47    24    47    1
    48    24    48    1
    49    24    49    1
    50    25    26   ar
    51    25    50    1
    52    26    51    1
    53    27    52    1
    54    27    53    1
@<TRIPOS>SUBSTRUCTURE
     1 ZINC000859496582        1 TEMP              0 ****  ****    0 ROOT


##########                                Name:    ZINC000031496632
##########                DOCK_Rotatable_Bonds:                   8
##########                         Heavy_Atoms:                  30
##########                    Molecular_Weight:             423.539
##########                DOCK_Rotatable_Bonds:                   8
##########                       Formal_Charge:          -0.0100009
##########                     HBond_Acceptors:                   8
##########                        HBond_Donors:                   1
##########                         Heavy_Atoms:                  30
##########                          Grid_Score:          -32.431335
##########                     Grid_vdw_energy:          -31.398230
##########                      Grid_es_energy:           -1.033105
##########           Internal_energy_repulsive:           11.129471

@<TRIPOS>MOLECULE
ZINC000031496632
 55 58 1 0 0
SMALL
USER_CHARGES


@<TRIPOS>ATOM
      1 C1         -3.8300    2.4401   51.6462 C.3     1  ZINC000031496632   -0.1600
      2 C2         -4.4213    3.3936   52.6864 C.3     1  ZINC000031496632    0.1600
      3 C3         -4.5940    4.7815   52.0660 C.3     1  ZINC000031496632   -0.1600
      4 N4         -5.7247    2.8895   53.1258 N.pl3   1  ZINC000031496632   -0.3900
      5 N5         -6.7247    2.3894   52.2861 N.2     1  ZINC000031496632   -0.2300
      6 C6         -7.7581    2.0238   52.9892 C.2     1  ZINC000031496632    0.0800
      7 C7         -7.4550    2.2861   54.3918 C.ar    1  ZINC000031496632   -0.2100
      8 C8         -8.1553    2.1087   55.5905 C.ar    1  ZINC000031496632    0.0100
      9 C9         -7.5320    2.4845   56.7702 C.ar    1  ZINC000031496632    0.0500
     10 N10        -8.1883    2.3279   57.9980 N.am    1  ZINC000031496632   -0.6600
     11 C11        -7.6998    1.4742   58.9193 C.2     1  ZINC000031496632    0.5500
     12 O12        -6.6891    0.8396   58.6848 O.2     1  ZINC000031496632   -0.4900
     13 C13        -8.3902    1.3095   60.2108 C.ar    1  ZINC000031496632   -0.1300
     14 C14        -7.9426    1.9995   61.3402 C.ar    1  ZINC000031496632   -0.0600
     15 C15        -8.5923    1.8411   62.5447 C.ar    1  ZINC000031496632   -0.1400
     16 C16        -9.6893    0.9996   62.6439 C.ar    1  ZINC000031496632   -0.0600
     17 C17       -10.1438    0.3106   61.5386 C.ar    1  ZINC000031496632   -0.1500
     18 C18        -9.5059    0.4622   60.3129 C.ar    1  ZINC000031496632   -0.0600
     19 S19       -10.0840   -0.4158   58.8988 S.3     1  ZINC000031496632    0.0900
     20 C20       -11.3169   -1.5482   59.5975 C.3     1  ZINC000031496632   -0.2000
     21 C21       -11.9215   -2.3760   58.4928 C.2     1  ZINC000031496632    0.5500
     22 O22       -11.2120   -3.0755   57.8014 O.2     1  ZINC000031496632   -0.5200
     23 N23       -13.2508   -2.3388   58.2732 N.am    1  ZINC000031496632   -0.6200
     24 C24       -14.2216   -1.5323   59.0272 C.3     1  ZINC000031496632    0.1000
     25 C25       -15.6180   -1.8305   58.4417 C.3     1  ZINC000031496632   -0.1300
     26 C26       -15.4233   -3.2135   57.7660 C.3     1  ZINC000031496632   -0.1300
     27 C27       -13.9712   -3.0953   57.2329 C.3     1  ZINC000031496632    0.1000
     28 C28        -6.2457    3.0193   56.7229 C.ar    1  ZINC000031496632    0.1600
     29 N29        -5.6088    3.1762   55.5836 N.ar    1  ZINC000031496632   -0.4900
     30 C30        -6.1547    2.8280   54.4252 C.ar    1  ZINC000031496632    0.3000
     31 H31        -2.8602    2.8152   51.3191 H       1  ZINC000031496632    0.0800
     32 H32        -3.7069    1.4513   52.0881 H       1  ZINC000031496632    0.0600
     33 H33        -4.5015    2.3744   50.7901 H       1  ZINC000031496632    0.0700
     34 H34        -3.7496    3.4594   53.5423 H       1  ZINC000031496632    0.1100
     35 H35        -3.6243    5.1566   51.7389 H       1  ZINC000031496632    0.0800
     36 H36        -5.2656    4.7158   51.2099 H       1  ZINC000031496632    0.0700
     37 H37        -5.0153    5.4609   52.8069 H       1  ZINC000031496632    0.0600
     38 H38        -8.6748    1.6027   52.6033 H       1  ZINC000031496632    0.2000
     39 H39        -9.1517    1.6920   55.5962 H       1  ZINC000031496632    0.1500
     40 H40        -8.9945    2.8340   58.1850 H       1  ZINC000031496632    0.4100
     41 H41        -7.0880    2.6559   61.2692 H       1  ZINC000031496632    0.1300
     42 H42        -8.2448    2.3754   63.4167 H       1  ZINC000031496632    0.1300
     43 H43       -10.1913    0.8823   63.5930 H       1  ZINC000031496632    0.1300
     44 H44       -10.9988   -0.3436   61.6245 H       1  ZINC000031496632    0.1300
     45 H45       -10.8369   -2.2053   60.3227 H       1  ZINC000031496632    0.1100
     46 H46       -12.1003   -0.9729   60.0909 H       1  ZINC000031496632    0.1100
     47 H47       -14.1945   -1.8094   60.0811 H       1  ZINC000031496632    0.0700
     48 H48       -13.9907   -0.4730   58.9143 H       1  ZINC000031496632    0.0700
     49 H49       -16.3638   -1.8901   59.2344 H       1  ZINC000031496632    0.0900
     50 H50       -15.8961   -1.0769   57.7049 H       1  ZINC000031496632    0.0800
     51 H51       -15.5114   -4.0199   58.4940 H       1  ZINC000031496632    0.0800
     52 H52       -16.1286   -3.3505   56.9463 H       1  ZINC000031496632    0.0900
     53 H53       -13.9575   -2.5557   56.2860 H       1  ZINC000031496632    0.0700
     54 H54       -13.5293   -4.0844   57.1134 H       1  ZINC000031496632    0.0800
     55 H55        -5.7614    3.3115   57.6430 H       1  ZINC000031496632    0.1700
@<TRIPOS>BOND
     1     1     2    1
     2     1    31    1
     3     1    32    1
     4     1    33    1
     5     2     3    1
     6     2     4    1
     7     2    34    1
     8     3    35    1
     9     3    36    1
    10     3    37    1
    11     4    30    1
    12     4     5    1
    13     5     6    2
    14     6     7    1
    15     6    38    1
    16     7    30   ar
    17     7     8   ar
    18     8     9   ar
    19     8    39    1
    20     9    10    1
    21     9    28   ar
    22    10    11   am
    23    10    40    1
    24    11    12    2
    25    11    13    1
    26    13    18   ar
    27    13    14   ar
    28    14    15   ar
    29    14    41    1
    30    15    16   ar
    31    15    42    1
    32    16    17   ar
    33    16    43    1
    34    17    18   ar
    35    17    44    1
    36    18    19    1
    37    19    20    1
    38    20    21    1
    39    20    45    1
    40    20    46    1
    41    21    22    2
    42    21    23   am
    43    23    27    1
    44    23    24    1
    45    24    25    1
    46    24    47    1
    47    24    48    1
    48    25    26    1
    49    25    49    1
    50    25    50    1
    51    26    27    1
    52    26    51    1
    53    26    52    1
    54    27    53    1
    55    27    54    1
    56    28    29   ar
    57    28    55    1
    58    29    30   ar
@<TRIPOS>SUBSTRUCTURE
     1 ZINC000031496632        1 TEMP              0 ****  ****    0 ROOT


##########                                Name:    ZINC000550217006
##########                DOCK_Rotatable_Bonds:                   7
##########                         Heavy_Atoms:                  27
##########                    Molecular_Weight:             367.404
##########                DOCK_Rotatable_Bonds:                   7
##########                       Formal_Charge:          0.00999951
##########                     HBond_Acceptors:                   7
##########                        HBond_Donors:                   3
##########                         Heavy_Atoms:                  27
##########                          Grid_Score:          -32.427109
##########                     Grid_vdw_energy:          -31.594803
##########                      Grid_es_energy:           -0.832304
##########           Internal_energy_repulsive:            9.413922

@<TRIPOS>MOLECULE
ZINC000550217006
 48 50 1 0 0
SMALL
USER_CHARGES


@<TRIPOS>ATOM
      1 C1        -10.5135   -2.3907   57.4159 C.3     1  ZINC000550217006   -0.1500
      2 C2        -11.7309   -1.8572   56.6579 C.3     1  ZINC000550217006    0.0500
      3 O3        -11.3077   -1.2877   55.4176 O.3     1  ZINC000550217006   -0.3100
      4 C4        -12.2814   -0.9124   54.5469 C.ar    1  ZINC000550217006    0.1400
      5 C5        -13.6089   -0.9075   54.9493 C.ar    1  ZINC000550217006   -0.2100
      6 C6        -14.5969   -0.5250   54.0624 C.ar    1  ZINC000550217006   -0.0800
      7 C7        -14.2634   -0.1481   52.7748 C.ar    1  ZINC000550217006   -0.1600
      8 C8        -12.9408   -0.1526   52.3711 C.ar    1  ZINC000550217006   -0.0700
      9 C9        -11.9488   -0.5282   53.2558 C.ar    1  ZINC000550217006   -0.1200
     10 C10       -10.5076   -0.5324   52.8155 C.3     1  ZINC000550217006   -0.0800
     11 C11        -9.9101    0.8623   53.0124 C.3     1  ZINC000550217006    0.1300
     12 N12        -8.5225    0.8699   52.5427 N.am    1  ZINC000550217006   -0.7200
     13 C13        -7.7131    1.9031   52.8488 C.2     1  ZINC000550217006    0.5600
     14 O14        -8.1347    2.8293   53.5131 O.2     1  ZINC000550217006   -0.5300
     15 C15        -6.3101    1.9099   52.3756 C.ar    1  ZINC000550217006   -0.0800
     16 C16        -5.7268    0.7342   51.8973 C.ar    1  ZINC000550217006   -0.1000
     17 C17        -4.4247    0.7446   51.4606 C.ar    1  ZINC000550217006   -0.0500
     18 C18        -3.6676    1.9276   51.4875 C.ar    1  ZINC000550217006   -0.1300
     19 C19        -4.2475    3.1040   51.9611 C.ar    1  ZINC000550217006    0.1800
     20 C20        -5.5723    3.0869   52.4009 C.ar    1  ZINC000550217006   -0.0900
     21 N21        -3.5802    4.3159   52.0128 N.am    1  ZINC000550217006   -0.6600
     22 C22        -2.3156    4.4891   52.3848 C.2     1  ZINC000550217006    0.5100
     23 O23        -1.8642    5.6138   52.4295 O.2     1  ZINC000550217006   -0.5100
     24 C24        -1.4285    3.3313   52.7523 C.3     1  ZINC000550217006    0.0900
     25 N25        -1.2508    2.4802   51.5757 N.am    1  ZINC000550217006   -0.7100
     26 C26        -2.2801    1.8546   51.0074 C.2     1  ZINC000550217006    0.5600
     27 O27        -2.0567    1.1761   50.0238 O.2     1  ZINC000550217006   -0.5200
     28 H28        -9.8192   -1.5731   57.6096 H       1  ZINC000550217006    0.0700
     29 H29       -10.8363   -2.8252   58.3619 H       1  ZINC000550217006    0.0800
     30 H30       -10.0178   -3.1539   56.8159 H       1  ZINC000550217006    0.0700
     31 H31       -12.4252   -2.6749   56.4641 H       1  ZINC000550217006    0.0600
     32 H32       -12.2266   -1.0941   57.2579 H       1  ZINC000550217006    0.0600
     33 H33       -13.8700   -1.2025   55.9548 H       1  ZINC000550217006    0.1300
     34 H34       -15.6306   -0.5210   54.3751 H       1  ZINC000550217006    0.1300
     35 H35       -15.0372    0.1502   52.0828 H       1  ZINC000550217006    0.1300
     36 H36       -12.6828    0.1420   51.3646 H       1  ZINC000550217006    0.1300
     37 H37        -9.9482   -1.2546   53.4101 H       1  ZINC000550217006    0.0800
     38 H38       -10.4502   -0.8068   51.7621 H       1  ZINC000550217006    0.0800
     39 H39       -10.4900    1.5895   52.4442 H       1  ZINC000550217006    0.0700
     40 H40        -9.9370    1.1231   54.0704 H       1  ZINC000550217006    0.0700
     41 H41        -8.1861    0.1312   52.0115 H       1  ZINC000550217006    0.4000
     42 H42        -6.2987   -0.1816   51.8713 H       1  ZINC000550217006    0.1400
     43 H43        -3.9778   -0.1670   51.0926 H       1  ZINC000550217006    0.1500
     44 H44        -6.0250    3.9947   52.7715 H       1  ZINC000550217006    0.1500
     45 H45        -4.0784    5.1072   51.7548 H       1  ZINC000550217006    0.4200
     46 H46        -0.4591    3.7045   53.0828 H       1  ZINC000550217006    0.1300
     47 H47        -1.8925    2.7554   53.5529 H       1  ZINC000550217006    0.1000
     48 H48        -0.3632    2.3693   51.2007 H       1  ZINC000550217006    0.4200
@<TRIPOS>BOND
     1     1     2    1
     2     1    28    1
     3     1    29    1
     4     1    30    1
     5     2     3    1
     6     2    31    1
     7     2    32    1
     8     3     4    1
     9     4     9   ar
    10     4     5   ar
    11     5     6   ar
    12     5    33    1
    13     6     7   ar
    14     6    34    1
    15     7     8   ar
    16     7    35    1
    17     8     9   ar
    18     8    36    1
    19     9    10    1
    20    10    11    1
    21    10    37    1
    22    10    38    1
    23    11    12    1
    24    11    39    1
    25    11    40    1
    26    12    13   am
    27    12    41    1
    28    13    14    2
    29    13    15    1
    30    15    20   ar
    31    15    16   ar
    32    16    17   ar
    33    16    42    1
    34    17    18   ar
    35    17    43    1
    36    18    26    1
    37    18    19   ar
    38    19    20   ar
    39    19    21    1
    40    20    44    1
    41    21    22   am
    42    21    45    1
    43    22    23    2
    44    22    24    1
    45    24    25    1
    46    24    46    1
    47    24    47    1
    48    25    26   am
    49    25    48    1
    50    26    27    2
@<TRIPOS>SUBSTRUCTURE
     1 ZINC000550217006        1 TEMP              0 ****  ****    0 ROOT


##########                                Name:    ZINC000498646479
##########                DOCK_Rotatable_Bonds:                   7
##########                         Heavy_Atoms:                  29
##########                    Molecular_Weight:              407.58
##########                DOCK_Rotatable_Bonds:                   7
##########                       Formal_Charge:          -0.0199997
##########                     HBond_Acceptors:                   5
##########                        HBond_Donors:                   0
##########                         Heavy_Atoms:                  29
##########                          Grid_Score:          -32.414837
##########                     Grid_vdw_energy:          -31.955435
##########                      Grid_es_energy:           -0.459403
##########           Internal_energy_repulsive:           30.889679

@<TRIPOS>MOLECULE
ZINC000498646479
 58 61 1 0 0
SMALL
USER_CHARGES


@<TRIPOS>ATOM
      1 C1         -8.0595    0.1655   62.0755 C.3     1  ZINC000498646479   -0.1500
      2 C2         -7.5914   -0.0910   60.6416 C.3     1  ZINC000498646479   -0.0600
      3 C3         -8.6571    0.3617   59.6769 C.2     1  ZINC000498646479   -0.1700
      4 C4         -9.6247   -0.4115   59.1818 C.2     1  ZINC000498646479   -0.1400
      5 C5        -10.4920    0.2254   58.3109 C.2     1  ZINC000498646479   -0.1300
      6 C6        -10.2287    1.5157   58.0990 C.2     1  ZINC000498646479   -0.1900
      7 C7        -11.0214    2.4275   57.1983 C.3     1  ZINC000498646479    0.1300
      8 N8        -10.5014    2.3350   55.8275 N.3     1  ZINC000498646479   -0.5300
      9 C9        -10.8427    1.0413   55.2211 C.3     1  ZINC000498646479    0.0400
     10 C10       -10.4446    1.0535   53.7414 C.3     1  ZINC000498646479    0.1200
     11 N11        -9.0267    1.4320   53.6423 N.am    1  ZINC000498646479   -0.6100
     12 C12        -8.1597    0.6857   52.9297 C.2     1  ZINC000498646479    0.5200
     13 O13        -8.5453   -0.3128   52.3594 O.2     1  ZINC000498646479   -0.5400
     14 C14        -6.7112    1.0920   52.8414 C.3     1  ZINC000498646479   -0.1000
     15 H15        -6.3439    1.3462   53.8357 H       1  ZINC000498646479    0.0900
     16 C16        -5.8897   -0.0679   52.2752 C.3     1  ZINC000498646479   -0.1500
     17 C17        -6.5777    2.3079   51.9223 C.3     1  ZINC000498646479   -0.0600
     18 C18        -5.1309    2.4954   51.5444 C.ar    1  ZINC000498646479   -0.1200
     19 C19        -4.2152    3.0426   52.4612 C.ar    1  ZINC000498646479   -0.0200
     20 C20        -4.5943    3.4353   53.7530 C.ar    1  ZINC000498646479   -0.1200
     21 C21        -3.6608    3.9587   54.5956 C.ar    1  ZINC000498646479   -0.1000
     22 C22        -2.3349    4.1107   54.1935 C.ar    1  ZINC000498646479   -0.1200
     23 C23        -1.9313    3.7403   52.9468 C.ar    1  ZINC000498646479   -0.0900
     24 C24        -2.8651    3.1964   52.0507 C.ar    1  ZINC000498646479   -0.1100
     25 C25        -2.5079    2.7962   50.7533 C.ar    1  ZINC000498646479    0.1400
     26 N26        -3.4164    2.2923   49.9510 N.ar    1  ZINC000498646479   -0.4800
     27 C27        -4.6825    2.1330   50.3104 C.ar    1  ZINC000498646479    0.0800
     28 C28        -8.5802    2.6467   54.3412 C.3     1  ZINC000498646479    0.1100
     29 C29        -9.0520    2.5718   55.7972 C.3     1  ZINC000498646479    0.0400
     30 S30        -8.8196    1.9922   59.0377 S.3     1  ZINC000498646479    0.1300
     31 H31        -7.2888   -0.1619   62.7733 H       1  ZINC000498646479    0.0600
     32 H32        -8.2445    1.2310   62.2122 H       1  ZINC000498646479    0.0600
     33 H33        -8.9786   -0.3898   62.2626 H       1  ZINC000498646479    0.0600
     34 H34        -6.6724    0.4643   60.4545 H       1  ZINC000498646479    0.0800
     35 H35        -7.4064   -1.1564   60.5049 H       1  ZINC000498646479    0.0700
     36 H36        -9.7237   -1.4553   59.4403 H       1  ZINC000498646479    0.1400
     37 H37       -11.3190   -0.2840   57.8386 H       1  ZINC000498646479    0.1300
     38 H38       -12.0695    2.1284   57.2101 H       1  ZINC000498646479    0.0900
     39 H39       -10.9327    3.4547   57.5520 H       1  ZINC000498646479    0.0500
     40 H40       -10.3051    0.2451   55.7359 H       1  ZINC000498646479    0.0400
     41 H41       -11.9159    0.8710   55.3076 H       1  ZINC000498646479    0.1000
     42 H42       -10.5892    0.0608   53.3151 H       1  ZINC000498646479    0.1000
     43 H43       -11.0555    1.7786   53.2038 H       1  ZINC000498646479    0.0800
     44 H44        -4.8320    0.1949   52.2897 H       1  ZINC000498646479    0.0700
     45 H45        -6.0513   -0.9582   52.8831 H       1  ZINC000498646479    0.0600
     46 H46        -6.2007   -0.2669   51.2497 H       1  ZINC000498646479    0.0700
     47 H47        -7.1708    2.1494   51.0215 H       1  ZINC000498646479    0.0900
     48 H48        -6.9358    3.1969   52.4414 H       1  ZINC000498646479    0.0800
     49 H49        -5.6185    3.3238   54.0772 H       1  ZINC000498646479    0.1400
     50 H50        -3.9525    4.2611   55.5905 H       1  ZINC000498646479    0.1300
     51 H51        -1.6158    4.5293   54.8819 H       1  ZINC000498646479    0.1300
     52 H52        -0.9005    3.8641   52.6497 H       1  ZINC000498646479    0.1300
     53 H53        -1.4875    2.9030   50.4160 H       1  ZINC000498646479    0.1600
     54 H54        -5.3801    1.7118   49.6016 H       1  ZINC000498646479    0.1500
     55 H55        -7.4924    2.7073   54.3113 H       1  ZINC000498646479    0.0900
     56 H56        -9.0120    3.5249   53.8611 H       1  ZINC000498646479    0.0800
     57 H57        -8.8262    3.5114   56.3014 H       1  ZINC000498646479    0.0900
     58 H58        -8.5392    1.7542   56.3040 H       1  ZINC000498646479    0.0400
@<TRIPOS>BOND
     1     1     2    1
     2     1    31    1
     3     1    32    1
     4     1    33    1
     5     2     3    1
     6     2    34    1
     7     2    35    1
     8     3    30    1
     9     3     4    2
    10     4     5    1
    11     4    36    1
    12     5     6    2
    13     5    37    1
    14     6     7    1
    15     6    30    1
    16     7     8    1
    17     7    38    1
    18     7    39    1
    19     8    29    1
    20     8     9    1
    21     9    10    1
    22     9    40    1
    23     9    41    1
    24    10    11    1
    25    10    42    1
    26    10    43    1
    27    11    12   am
    28    11    28    1
    29    12    13    2
    30    12    14    1
    31    14    15    1
    32    14    16    1
    33    14    17    1
    34    16    44    1
    35    16    45    1
    36    16    46    1
    37    17    18    1
    38    17    47    1
    39    17    48    1
    40    18    27   ar
    41    18    19   ar
    42    19    24   ar
    43    19    20   ar
    44    20    21   ar
    45    20    49    1
    46    21    22   ar
    47    21    50    1
    48    22    23   ar
    49    22    51    1
    50    23    24   ar
    51    23    52    1
    52    24    25   ar
    53    25    26   ar
    54    25    53    1
    55    26    27   ar
    56    27    54    1
    57    28    29    1
    58    28    55    1
    59    28    56    1
    60    29    57    1
    61    29    58    1
@<TRIPOS>SUBSTRUCTURE
     1 ZINC000498646479        1 TEMP              0 ****  ****    0 ROOT


##########                                Name:    ZINC000369046711
##########                DOCK_Rotatable_Bonds:                   8
##########                         Heavy_Atoms:                  26
##########                    Molecular_Weight:             367.467
##########                DOCK_Rotatable_Bonds:                   8
##########                       Formal_Charge:        -7.63685e-07
##########                     HBond_Acceptors:                   8
##########                        HBond_Donors:                   1
##########                         Heavy_Atoms:                  26
##########                          Grid_Score:          -32.412121
##########                     Grid_vdw_energy:          -30.432489
##########                      Grid_es_energy:           -1.979631
##########           Internal_energy_repulsive:           17.675077

@<TRIPOS>MOLECULE
ZINC000369046711
 56 58 1 0 0
SMALL
USER_CHARGES


@<TRIPOS>ATOM
      1 C1        -11.1834    0.5511   54.6563 C.3     1  ZINC000369046711   -0.1800
      2 C2        -11.7681    0.5119   53.2430 C.3     1  ZINC000369046711    0.1400
      3 C3        -12.9983   -0.3978   53.2251 C.3     1  ZINC000369046711   -0.1800
      4 C4        -12.1727    1.9251   52.8190 C.3     1  ZINC000369046711   -0.1400
      5 O5        -10.7717   -0.0034   52.3210 O.3     1  ZINC000369046711   -0.3700
      6 C6         -9.4863    0.0489   52.7182 C.2     1  ZINC000369046711    0.6500
      7 O7         -8.9550   -0.9379   53.1878 O.2     1  ZINC000369046711   -0.5700
      8 N8         -8.7891    1.1956   52.5950 N.am    1  ZINC000369046711   -0.7100
      9 C9         -7.3899    1.2520   53.0256 C.3     1  ZINC000369046711    0.1800
     10 H10        -7.1232    0.3033   53.4915 H       1  ZINC000369046711    0.0900
     11 C11        -7.2291    2.3735   54.0513 C.3     1  ZINC000369046711   -0.1300
     12 C12        -7.5953    3.6976   53.3707 C.3     1  ZINC000369046711   -0.1200
     13 C13        -6.5893    3.9599   52.2537 C.3     1  ZINC000369046711   -0.1200
     14 C14        -6.6558    2.8657   51.1863 C.3     1  ZINC000369046711   -0.1000
     15 H15        -7.5453    2.9556   50.5628 H       1  ZINC000369046711    0.0900
     16 C16        -5.3436    2.9753   50.3623 C.3     1  ZINC000369046711    0.0400
     17 N17        -4.3612    2.0749   50.9967 N.3     1  ZINC000369046711   -0.5200
     18 C18        -3.1671    2.8161   51.4243 C.3     1  ZINC000369046711    0.1200
     19 C19        -1.9738    2.3455   50.6334 C.2     1  ZINC000369046711    0.2900
     20 N20        -2.0043    1.5405   49.6025 N.2     1  ZINC000369046711   -0.5400
     21 C21        -0.7674    1.3384   49.1502 C.2     1  ZINC000369046711    0.2000
     22 N22         0.0710    2.0150   49.8903 N.2     1  ZINC000369046711   -0.3200
     23 N23        -0.6928    2.6842   50.8604 N.pl3   1  ZINC000369046711   -0.3700
     24 C24        -0.1922    3.5681   51.9160 C.3     1  ZINC000369046711    0.1000
     25 C25         1.3128    3.7759   51.7361 C.3     1  ZINC000369046711    0.0500
     26 F26         1.5563    4.3698   50.4930 F       1  ZINC000369046711   -0.2000
     27 C27        -5.0107    1.4040   52.1481 C.3     1  ZINC000369046711    0.0500
     28 C28        -6.5129    1.4709   51.8193 C.3     1  ZINC000369046711   -0.1000
     29 H29        -6.7504    0.7135   51.0722 H       1  ZINC000369046711    0.0900
     30 H30       -10.8951   -0.4557   54.9582 H       1  ZINC000369046711    0.0900
     31 H31       -10.3071    1.1991   54.6690 H       1  ZINC000369046711    0.0600
     32 H32       -11.9314    0.9379   55.3483 H       1  ZINC000369046711    0.0700
     33 H33       -13.7462   -0.0110   53.9171 H       1  ZINC000369046711    0.0700
     34 H34       -13.4149   -0.4257   52.2182 H       1  ZINC000369046711    0.0600
     35 H35       -12.7100   -1.4046   53.5271 H       1  ZINC000369046711    0.0900
     36 H36       -11.2964    2.5732   52.8317 H       1  ZINC000369046711    0.0700
     37 H37       -12.5894    1.8971   51.8121 H       1  ZINC000369046711    0.0700
     38 H38       -12.9207    2.3119   53.5110 H       1  ZINC000369046711    0.0800
     39 H39        -9.2136    1.9836   52.2213 H       1  ZINC000369046711    0.4000
     40 H40        -7.8945    2.1976   54.8965 H       1  ZINC000369046711    0.0700
     41 H41        -6.1960    2.4106   54.3970 H       1  ZINC000369046711    0.0800
     42 H42        -8.5993    3.6296   52.9518 H       1  ZINC000369046711    0.0600
     43 H43        -7.5549    4.5079   54.0987 H       1  ZINC000369046711    0.0700
     44 H44        -6.8091    4.9231   51.7930 H       1  ZINC000369046711    0.0700
     45 H45        -5.5848    3.9872   52.6761 H       1  ZINC000369046711    0.0600
     46 H46        -5.5232    2.6643   49.3332 H       1  ZINC000369046711    0.0800
     47 H47        -4.9758    4.0012   50.3827 H       1  ZINC000369046711    0.0800
     48 H48        -3.3199    3.8815   51.2523 H       1  ZINC000369046711    0.0800
     49 H49        -2.9916    2.6409   52.4857 H       1  ZINC000369046711    0.1000
     50 H50        -0.5007    0.7159   48.3088 H       1  ZINC000369046711    0.2200
     51 H51        -0.7016    4.5299   51.8564 H       1  ZINC000369046711    0.1200
     52 H52        -0.3828    3.1158   52.8893 H       1  ZINC000369046711    0.1100
     53 H53         1.6873    4.4243   52.5281 H       1  ZINC000369046711    0.0900
     54 H54         1.8209    2.8128   51.7843 H       1  ZINC000369046711    0.0800
     55 H55        -4.6804    0.3679   52.2225 H       1  ZINC000369046711    0.0900
     56 H56        -4.7985    1.9410   53.0725 H       1  ZINC000369046711    0.0600
@<TRIPOS>BOND
     1     1     2    1
     2     1    30    1
     3     1    31    1
     4     1    32    1
     5     2     3    1
     6     2     4    1
     7     2     5    1
     8     3    33    1
     9     3    34    1
    10     3    35    1
    11     4    36    1
    12     4    37    1
    13     4    38    1
    14     5     6    1
    15     6     7    2
    16     6     8   am
    17     8     9    1
    18     8    39    1
    19     9    10    1
    20     9    28    1
    21     9    11    1
    22    11    12    1
    23    11    40    1
    24    11    41    1
    25    12    13    1
    26    12    42    1
    27    12    43    1
    28    13    14    1
    29    13    44    1
    30    13    45    1
    31    14    15    1
    32    14    28    1
    33    14    16    1
    34    16    17    1
    35    16    46    1
    36    16    47    1
    37    17    18    1
    38    17    27    1
    39    18    19    1
    40    18    48    1
    41    18    49    1
    42    19    23    1
    43    19    20    2
    44    20    21    1
    45    21    22    2
    46    21    50    1
    47    22    23    1
    48    23    24    1
    49    24    25    1
    50    24    51    1
    51    24    52    1
    52    25    26    1
    53    25    53    1
    54    25    54    1
    55    27    28    1
    56    27    55    1
    57    27    56    1
    58    28    29    1
@<TRIPOS>SUBSTRUCTURE
     1 ZINC000369046711        1 TEMP              0 ****  ****    0 ROOT


##########                                Name:    ZINC000451019064
##########                DOCK_Rotatable_Bonds:                   8
##########                         Heavy_Atoms:                  23
##########                    Molecular_Weight:             346.534
##########                DOCK_Rotatable_Bonds:                   8
##########                       Formal_Charge:          -0.0200008
##########                     HBond_Acceptors:                   6
##########                        HBond_Donors:                   1
##########                         Heavy_Atoms:                  23
##########                          Grid_Score:          -32.368023
##########                     Grid_vdw_energy:          -32.240738
##########                      Grid_es_energy:           -0.127284
##########           Internal_energy_repulsive:            8.315877

@<TRIPOS>MOLECULE
ZINC000451019064
 57 58 1 0 0
SMALL
USER_CHARGES


@<TRIPOS>ATOM
      1 C1         -6.5665   -0.4917   51.9327 C.3     1  ZINC000451019064   -0.1500
      2 C2         -6.0967    0.6889   51.0803 C.3     1  ZINC000451019064    0.0900
      3 H3         -6.0049    0.3736   50.0410 H       1  ZINC000451019064    0.0700
      4 C4         -4.7375    1.1773   51.5884 C.3     1  ZINC000451019064    0.0200
      5 N5         -4.3272    2.3589   50.8160 N.3     1  ZINC000451019064   -0.5400
      6 C6         -2.9990    2.8263   51.2347 C.3     1  ZINC000451019064    0.0600
      7 C7         -1.9247    2.1172   50.4075 C.3     1  ZINC000451019064   -0.1300
      8 C8         -0.5444    2.6443   50.8049 C.3     1  ZINC000451019064    0.1100
      9 N9          0.4629    2.1227   49.8779 N.am    1  ZINC000451019064   -1.1200
     10 S10         1.9823    1.7574   50.4261 S.o2    1  ZINC000451019064    2.6100
     11 O11         2.5117    3.0061   50.8499 O.2     1  ZINC000451019064   -0.9600
     12 O12         1.7762    0.6975   51.3498 O.2     1  ZINC000451019064   -0.9500
     13 C13         2.8619    1.1590   48.9567 C.3     1  ZINC000451019064   -0.6300
     14 C14         2.9315    2.2762   47.9137 C.3     1  ZINC000451019064   -0.1100
     15 C15         3.6733    1.7716   46.6745 C.3     1  ZINC000451019064   -0.0800
     16 C16         3.7430    2.8888   45.6315 C.3     1  ZINC000451019064   -0.1200
     17 C17         4.4848    2.3841   44.3922 C.3     1  ZINC000451019064   -0.1200
     18 C18         5.9026    1.9623   44.7830 C.3     1  ZINC000451019064   -0.1200
     19 C19         5.8331    0.8450   45.8260 C.3     1  ZINC000451019064   -0.1200
     20 C20         5.0911    1.3497   47.0653 C.3     1  ZINC000451019064   -0.1200
     21 C21        -5.3252    3.4318   50.9357 C.3     1  ZINC000451019064    0.0200
     22 C22        -6.6784    2.9208   50.4342 C.3     1  ZINC000451019064    0.0900
     23 H23        -6.6038    2.6712   49.3758 H       1  ZINC000451019064    0.0700
     24 C24        -7.7388    4.0064   50.6295 C.3     1  ZINC000451019064   -0.1500
     25 O25        -7.0467    1.7537   51.1743 O.3     1  ZINC000451019064   -0.3800
     26 H26        -7.5349   -0.8380   51.5715 H       1  ZINC000451019064    0.0700
     27 H27        -5.8413   -1.3023   51.8619 H       1  ZINC000451019064    0.0700
     28 H28        -6.6581   -0.1759   52.9719 H       1  ZINC000451019064    0.0600
     29 H29        -4.8166    1.4412   52.6430 H       1  ZINC000451019064    0.0400
     30 H30        -3.9973    0.3867   51.4649 H       1  ZINC000451019064    0.0900
     31 H31        -2.9266    3.9025   51.0781 H       1  ZINC000451019064    0.0400
     32 H32        -2.8511    2.6019   52.2910 H       1  ZINC000451019064    0.0800
     33 H33        -1.9716    1.0444   50.5941 H       1  ZINC000451019064    0.0800
     34 H34        -2.0959    2.3096   49.3483 H       1  ZINC000451019064    0.0800
     35 H35        -0.5460    3.7336   50.7645 H       1  ZINC000451019064    0.0800
     36 H36        -0.3092    2.3186   51.8181 H       1  ZINC000451019064    0.0700
     37 H37         0.2400    1.9912   48.9431 H       1  ZINC000451019064    0.4200
     38 H38         3.8720    0.8584   49.2352 H       1  ZINC000451019064    0.1300
     39 H39         2.3308    0.3040   48.5384 H       1  ZINC000451019064    0.1400
     40 H40         1.9215    2.5768   47.6353 H       1  ZINC000451019064    0.0800
     41 H41         3.4627    3.1312   48.3321 H       1  ZINC000451019064    0.0800
     42 H42         3.1422    0.9166   46.2561 H       1  ZINC000451019064    0.0800
     43 H43         2.7329    3.1893   45.3530 H       1  ZINC000451019064    0.0600
     44 H44         4.2741    3.7438   46.0499 H       1  ZINC000451019064    0.0700
     45 H45         3.9537    1.5292   43.9739 H       1  ZINC000451019064    0.0600
     46 H46         4.5344    3.1801   43.6492 H       1  ZINC000451019064    0.0600
     47 H47         6.4311    1.6028   43.9002 H       1  ZINC000451019064    0.0600
     48 H48         6.4338    2.8172   45.2014 H       1  ZINC000451019064    0.0600
     49 H49         5.3019   -0.0100   45.4077 H       1  ZINC000451019064    0.0600
     50 H50         6.8431    0.5445   46.1045 H       1  ZINC000451019064    0.0600
     51 H51         5.6223    2.2047   47.4837 H       1  ZINC000451019064    0.0700
     52 H52         5.0416    0.5537   47.8083 H       1  ZINC000451019064    0.0600
     53 H53        -5.4137    3.7317   51.9798 H       1  ZINC000451019064    0.0400
     54 H54        -5.0140    4.2869   50.3357 H       1  ZINC000451019064    0.0900
     55 H55        -7.4556    4.8961   50.0671 H       1  ZINC000451019064    0.0700
     56 H56        -8.7020    3.6420   50.2723 H       1  ZINC000451019064    0.0700
     57 H57        -7.8141    4.2545   51.6883 H       1  ZINC000451019064    0.0600
@<TRIPOS>BOND
     1     1     2    1
     2     1    26    1
     3     1    27    1
     4     1    28    1
     5     2     3    1
     6     2    25    1
     7     2     4    1
     8     4     5    1
     9     4    29    1
    10     4    30    1
    11     5     6    1
    12     5    21    1
    13     6     7    1
    14     6    31    1
    15     6    32    1
    16     7     8    1
    17     7    33    1
    18     7    34    1
    19     8     9    1
    20     8    35    1
    21     8    36    1
    22     9    10   am
    23     9    37    1
    24    10    11    2
    25    10    12    2
    26    10    13    1
    27    13    14    1
    28    13    38    1
    29    13    39    1
    30    14    15    1
    31    14    40    1
    32    14    41    1
    33    15    20    1
    34    15    16    1
    35    15    42    1
    36    16    17    1
    37    16    43    1
    38    16    44    1
    39    17    18    1
    40    17    45    1
    41    17    46    1
    42    18    19    1
    43    18    47    1
    44    18    48    1
    45    19    20    1
    46    19    49    1
    47    19    50    1
    48    20    51    1
    49    20    52    1
    50    21    22    1
    51    21    53    1
    52    21    54    1
    53    22    23    1
    54    22    24    1
    55    22    25    1
    56    24    55    1
    57    24    56    1
    58    24    57    1
@<TRIPOS>SUBSTRUCTURE
     1 ZINC000451019064        1 TEMP              0 ****  ****    0 ROOT


##########                                Name:    ZINC000929592477
##########                DOCK_Rotatable_Bonds:                   7
##########                         Heavy_Atoms:                  28
##########                    Molecular_Weight:             399.517
##########                DOCK_Rotatable_Bonds:                   7
##########                       Formal_Charge:         -8.9407e-08
##########                     HBond_Acceptors:                   8
##########                        HBond_Donors:                   3
##########                         Heavy_Atoms:                  28
##########                          Grid_Score:          -32.356773
##########                     Grid_vdw_energy:          -31.761879
##########                      Grid_es_energy:           -0.594895
##########           Internal_energy_repulsive:           13.325003

@<TRIPOS>MOLECULE
ZINC000929592477
 53 56 1 0 0
SMALL
USER_CHARGES


@<TRIPOS>ATOM
      1 O1        -10.2999    1.2282   58.1089 O.2     1  ZINC000929592477   -0.5700
      2 C2        -10.2092    0.0665   57.7611 C.2     1  ZINC000929592477    0.7100
      3 N3         -9.9999   -0.8974   58.6796 N.am    1  ZINC000929592477   -0.6800
      4 C4         -9.8810   -0.5601   60.0352 C.ar    1  ZINC000929592477    0.1600
      5 C5        -11.0106   -0.2204   60.7676 C.ar    1  ZINC000929592477   -0.1300
      6 C6        -10.8940    0.1122   62.1023 C.ar    1  ZINC000929592477   -0.0800
      7 C7         -9.6460    0.1065   62.7129 C.ar    1  ZINC000929592477   -0.1000
      8 S8         -9.4965    0.5302   64.4166 S.3     1  ZINC000929592477   -0.1100
      9 C9         -7.7008    0.5914   64.6660 C.3     1  ZINC000929592477   -0.0800
     10 C10        -7.1097    1.8777   64.0376 C.3     1  ZINC000929592477   -0.1200
     11 C11        -5.7933    2.0718   64.8304 C.3     1  ZINC000929592477   -0.1200
     12 C12        -6.1552    1.6577   66.2717 C.3     1  ZINC000929592477   -0.1200
     13 C13        -7.3680    0.7163   66.1672 C.3     1  ZINC000929592477   -0.1000
     14 C14        -8.5159   -0.2340   61.9799 C.ar    1  ZINC000929592477   -0.1200
     15 C15        -8.6343   -0.5715   60.6465 C.ar    1  ZINC000929592477   -0.1000
     16 N16       -10.3235   -0.2577   56.4580 N.am    1  ZINC000929592477   -0.7300
     17 C17       -10.5510    0.7900   55.4597 C.3     1  ZINC000929592477    0.1500
     18 H18       -11.1379    1.6044   55.8843 H       1  ZINC000929592477    0.1200
     19 C19       -11.2491    0.2079   54.2023 C.3     1  ZINC000929592477   -0.1400
     20 C20       -10.0451   -0.3708   53.4179 C.3     1  ZINC000929592477    0.1100
     21 N21        -8.9491    0.5880   53.6476 N.pl3   1  ZINC000929592477   -0.6000
     22 C22        -7.8588    0.7758   52.8229 C.2     1  ZINC000929592477    0.4600
     23 C23        -7.2020    1.9950   52.8023 C.2     1  ZINC000929592477   -0.4000
     24 C24        -6.0989    2.1444   51.9504 C.2     1  ZINC000929592477    0.5300
     25 O25        -5.4902    3.2014   51.9005 O.2     1  ZINC000929592477   -0.5500
     26 N26        -5.7224    1.0974   51.1867 N.am    1  ZINC000929592477   -0.6400
     27 C27        -6.3992   -0.0668   51.2473 C.2     1  ZINC000929592477    0.4100
     28 N28        -7.4243   -0.2235   52.0391 N.2     1  ZINC000929592477   -0.5700
     29 C29        -9.2104    1.3151   54.9039 C.3     1  ZINC000929592477    0.1100
     30 H30        -9.9315   -1.8245   58.4027 H       1  ZINC000929592477    0.4100
     31 H31       -11.9806   -0.2160   60.2929 H       1  ZINC000929592477    0.1300
     32 H32       -11.7726    0.3771   62.6717 H       1  ZINC000929592477    0.1300
     33 H33        -7.2274   -0.2946   64.2428 H       1  ZINC000929592477    0.1000
     34 H34        -6.9040    1.7303   62.9773 H       1  ZINC000929592477    0.0700
     35 H35        -7.7797    2.7243   64.1881 H       1  ZINC000929592477    0.0800
     36 H36        -5.0100    1.4262   64.4332 H       1  ZINC000929592477    0.0700
     37 H37        -5.4804    3.1155   64.8006 H       1  ZINC000929592477    0.0700
     38 H38        -5.3163    1.1358   66.7321 H       1  ZINC000929592477    0.0700
     39 H39        -6.4156    2.5381   66.8590 H       1  ZINC000929592477    0.0700
     40 H40        -8.2169    1.1400   66.7037 H       1  ZINC000929592477    0.0700
     41 H41        -7.1175   -0.2622   66.5768 H       1  ZINC000929592477    0.0800
     42 H42        -7.5456   -0.2386   62.4541 H       1  ZINC000929592477    0.1300
     43 H43        -7.7559   -0.8365   60.0766 H       1  ZINC000929592477    0.1400
     44 H44       -10.2550   -1.1848   56.1811 H       1  ZINC000929592477    0.4000
     45 H45       -11.9524   -0.5791   54.4750 H       1  ZINC000929592477    0.0900
     46 H46       -11.7457    0.9931   53.6323 H       1  ZINC000929592477    0.0900
     47 H47        -9.7769   -1.3536   53.8056 H       1  ZINC000929592477    0.0700
     48 H48       -10.2789   -0.4322   52.3551 H       1  ZINC000929592477    0.0800
     49 H49        -7.5321    2.8113   53.4276 H       1  ZINC000929592477    0.1500
     50 H50        -4.9616    1.1831   50.5911 H       1  ZINC000929592477    0.4200
     51 H51        -6.0820   -0.8925   50.6278 H       1  ZINC000929592477    0.2100
     52 H52        -9.2819    2.3844   54.7054 H       1  ZINC000929592477    0.0900
     53 H53        -8.4100    1.1211   55.6179 H       1  ZINC000929592477    0.0800
@<TRIPOS>BOND
     1     1     2    2
     2     2     3   am
     3     2    16   am
     4     3     4    1
     5     3    30    1
     6     4    15   ar
     7     4     5   ar
     8     5     6   ar
     9     5    31    1
    10     6     7   ar
    11     6    32    1
    12     7     8    1
    13     7    14   ar
    14     8     9    1
    15     9    13    1
    16     9    10    1
    17     9    33    1
    18    10    11    1
    19    10    34    1
    20    10    35    1
    21    11    12    1
    22    11    36    1
    23    11    37    1
    24    12    13    1
    25    12    38    1
    26    12    39    1
    27    13    40    1
    28    13    41    1
    29    14    15   ar
    30    14    42    1
    31    15    43    1
    32    16    17    1
    33    16    44    1
    34    17    18    1
    35    17    29    1
    36    17    19    1
    37    19    20    1
    38    19    45    1
    39    19    46    1
    40    20    21    1
    41    20    47    1
    42    20    48    1
    43    21    22    1
    44    21    29    1
    45    22    28    1
    46    22    23    2
    47    23    24    1
    48    23    49    1
    49    24    25    2
    50    24    26   am
    51    26    27    1
    52    26    50    1
    53    27    28    2
    54    27    51    1
    55    29    52    1
    56    29    53    1
@<TRIPOS>SUBSTRUCTURE
     1 ZINC000929592477        1 TEMP              0 ****  ****    0 ROOT


##########                                Name:    ZINC000655982608
##########                DOCK_Rotatable_Bonds:                   5
##########                         Heavy_Atoms:                  29
##########                    Molecular_Weight:             388.469
##########                DOCK_Rotatable_Bonds:                   5
##########                       Formal_Charge:          -0.0200006
##########                     HBond_Acceptors:                   6
##########                        HBond_Donors:                   0
##########                         Heavy_Atoms:                  29
##########                          Grid_Score:          -32.352760
##########                     Grid_vdw_energy:          -32.495270
##########                      Grid_es_energy:            0.142511
##########           Internal_energy_repulsive:           21.037525

@<TRIPOS>MOLECULE
ZINC000655982608
 53 57 1 0 0
SMALL
USER_CHARGES


@<TRIPOS>ATOM
      1 C1         -7.4125    2.4395   54.3367 C.3     1  ZINC000655982608   -0.1900
      2 C2         -8.1548    1.6136   53.2843 C.3     1  ZINC000655982608    0.0800
      3 H3         -7.8541    0.5689   53.3637 H       1  ZINC000655982608    0.1000
      4 C4         -9.6628    1.7294   53.5157 C.3     1  ZINC000655982608   -0.0300
      5 C5        -10.1903    0.4238   54.0526 C.2     1  ZINC000655982608    0.2000
      6 N6        -10.3807    0.1178   55.3133 N.2     1  ZINC000655982608   -0.4800
      7 C7        -10.8582   -1.1396   55.3125 C.2     1  ZINC000655982608    0.1700
      8 C8        -11.2379   -1.9502   56.5249 C.3     1  ZINC000655982608   -0.0100
      9 H9        -11.1814   -3.0176   56.3114 H       1  ZINC000655982608    0.1300
     10 C10       -10.3519   -1.5808   57.7372 C.3     1  ZINC000655982608   -0.1400
     11 C11       -11.2933   -1.6497   58.9194 C.2     1  ZINC000655982608    0.5200
     12 O12       -10.9474   -1.7032   60.0806 O.2     1  ZINC000655982608   -0.5000
     13 N13       -12.5690   -1.6423   58.4956 N.am    1  ZINC000655982608   -0.5600
     14 C14       -13.6821   -1.7047   59.3411 C.ar    1  ZINC000655982608    0.1600
     15 C15       -14.7213   -2.5819   59.0598 C.ar    1  ZINC000655982608   -0.1600
     16 C16       -15.8187   -2.6411   59.8963 C.ar    1  ZINC000655982608   -0.0900
     17 C17       -15.8836   -1.8276   61.0126 C.ar    1  ZINC000655982608   -0.1400
     18 C18       -14.8508   -0.9527   61.2953 C.ar    1  ZINC000655982608   -0.0900
     19 C19       -13.7475   -0.8935   60.4663 C.ar    1  ZINC000655982608   -0.1600
     20 C20       -12.6445   -1.5614   57.0316 C.3     1  ZINC000655982608    0.1100
     21 N21       -10.9324   -1.5268   54.0744 N.2     1  ZINC000655982608   -0.3700
     22 O22       -10.5588   -0.6413   53.3343 O.3     1  ZINC000655982608    0.0900
     23 N23        -7.8250    2.1175   51.9444 N.3     1  ZINC000655982608   -0.4700
     24 C24        -8.3398    3.4908   51.7530 C.3     1  ZINC000655982608    0.0300
     25 C25        -7.3075    4.1064   50.7806 C.3     1  ZINC000655982608   -0.0800
     26 C26        -6.0597    3.2902   51.0532 C.ar    1  ZINC000655982608   -0.1400
     27 C27        -4.7358    3.5100   50.7375 C.ar    1  ZINC000655982608   -0.0800
     28 C28        -3.7715    2.5921   51.1142 C.ar    1  ZINC000655982608   -0.1400
     29 C29        -4.1377    1.4539   51.8084 C.ar    1  ZINC000655982608   -0.0900
     30 C30        -5.4614    1.2282   52.1249 C.ar    1  ZINC000655982608   -0.1400
     31 C31        -6.4390    2.1464   51.7462 C.ar    1  ZINC000655982608    0.1000
     32 H32        -7.5680    1.9980   55.3210 H       1  ZINC000655982608    0.0700
     33 H33        -6.3471    2.4481   54.1067 H       1  ZINC000655982608    0.0700
     34 H34        -7.7934    3.4608   54.3322 H       1  ZINC000655982608    0.0700
     35 H35        -9.8600    2.5243   54.2350 H       1  ZINC000655982608    0.1200
     36 H36       -10.1583    1.9613   52.5730 H       1  ZINC000655982608    0.1100
     37 H37        -9.5423   -2.3016   57.8517 H       1  ZINC000655982608    0.1200
     38 H38        -9.9533   -0.5725   57.6252 H       1  ZINC000655982608    0.1200
     39 H39       -14.6715   -3.2169   58.1877 H       1  ZINC000655982608    0.1200
     40 H40       -16.6271   -3.3231   59.6781 H       1  ZINC000655982608    0.1300
     41 H41       -16.7429   -1.8755   61.6650 H       1  ZINC000655982608    0.1200
     42 H42       -14.9047   -0.3182   62.1676 H       1  ZINC000655982608    0.1300
     43 H43       -12.9412   -0.2099   60.6876 H       1  ZINC000655982608    0.1500
     44 H44       -12.8887   -0.5452   56.7221 H       1  ZINC000655982608    0.0900
     45 H45       -13.3896   -2.2611   56.6532 H       1  ZINC000655982608    0.1000
     46 H46        -9.3322    3.4724   51.3024 H       1  ZINC000655982608    0.1000
     47 H47        -8.3529    4.0341   52.6977 H       1  ZINC000655982608    0.0700
     48 H48        -7.6304    3.9844   49.7467 H       1  ZINC000655982608    0.0900
     49 H49        -7.1388    5.1582   51.0119 H       1  ZINC000655982608    0.0800
     50 H50        -4.4511    4.3994   50.1951 H       1  ZINC000655982608    0.1200
     51 H51        -2.7346    2.7643   50.8660 H       1  ZINC000655982608    0.1200
     52 H52        -3.3846    0.7385   52.1038 H       1  ZINC000655982608    0.1300
     53 H53        -5.7410    0.3370   52.6670 H       1  ZINC000655982608    0.1200
@<TRIPOS>BOND
     1     1     2    1
     2     1    32    1
     3     1    33    1
     4     1    34    1
     5     2     3    1
     6     2     4    1
     7     2    23    1
     8     4     5    1
     9     4    35    1
    10     4    36    1
    11     5    22    1
    12     5     6    2
    13     6     7    1
    14     7     8    1
    15     7    21    2
    16     8     9    1
    17     8    20    1
    18     8    10    1
    19    10    11    1
    20    10    37    1
    21    10    38    1
    22    11    12    2
    23    11    13   am
    24    13    14    1
    25    13    20    1
    26    14    19   ar
    27    14    15   ar
    28    15    16   ar
    29    15    39    1
    30    16    17   ar
    31    16    40    1
    32    17    18   ar
    33    17    41    1
    34    18    19   ar
    35    18    42    1
    36    19    43    1
    37    20    44    1
    38    20    45    1
    39    21    22    1
    40    23    31    1
    41    23    24    1
    42    24    25    1
    43    24    46    1
    44    24    47    1
    45    25    26    1
    46    25    48    1
    47    25    49    1
    48    26    31   ar
    49    26    27   ar
    50    27    28   ar
    51    27    50    1
    52    28    29   ar
    53    28    51    1
    54    29    30   ar
    55    29    52    1
    56    30    31   ar
    57    30    53    1
@<TRIPOS>SUBSTRUCTURE
     1 ZINC000655982608        1 TEMP              0 ****  ****    0 ROOT


##########                                Name:    ZINC000918875053
##########                DOCK_Rotatable_Bonds:                   6
##########                         Heavy_Atoms:                  26
##########                    Molecular_Weight:             359.357
##########                DOCK_Rotatable_Bonds:                   6
##########                       Formal_Charge:           0.0200003
##########                     HBond_Acceptors:                   8
##########                        HBond_Donors:                   0
##########                         Heavy_Atoms:                  26
##########                          Grid_Score:          -32.351376
##########                     Grid_vdw_energy:          -32.770893
##########                      Grid_es_energy:            0.419517
##########           Internal_energy_repulsive:            7.654510

@<TRIPOS>MOLECULE
ZINC000918875053
 44 47 1 0 0
SMALL
USER_CHARGES


@<TRIPOS>ATOM
      1 C1        -10.0203    1.8414   52.7532 C.3     1  ZINC000918875053   -0.1700
      2 C2         -9.0828    1.0506   53.6680 C.3     1  ZINC000918875053    0.1900
      3 H3         -8.8090    1.6646   54.5260 H       1  ZINC000918875053    0.1400
      4 O4         -9.7553   -0.1514   54.1277 O.3     1  ZINC000918875053   -0.3400
      5 C5        -10.5849   -0.0226   55.1751 C.2     1  ZINC000918875053    0.4800
      6 O6        -10.6359    1.0217   55.7806 O.2     1  ZINC000918875053   -0.4900
      7 C7        -11.4526   -1.1807   55.5959 C.3     1  ZINC000918875053   -0.0900
      8 H8        -11.9536   -1.6232   54.7348 H       1  ZINC000918875053    0.1400
      9 C9        -10.6274   -2.2411   56.3610 C.3     1  ZINC000918875053   -0.1400
     10 C10       -11.5689   -2.7399   57.4349 C.2     1  ZINC000918875053    0.5300
     11 O11       -11.4184   -3.7615   58.0712 O.2     1  ZINC000918875053   -0.5000
     12 N12       -12.5966   -1.8860   57.5817 N.am    1  ZINC000918875053   -0.5800
     13 C13       -13.6477   -2.0633   58.4901 C.ar    1  ZINC000918875053    0.1000
     14 C14       -13.6025   -1.4505   59.7343 C.ar    1  ZINC000918875053   -0.0800
     15 C15       -14.6412   -1.6267   60.6284 C.ar    1  ZINC000918875053   -0.1200
     16 C16       -15.7254   -2.4129   60.2858 C.ar    1  ZINC000918875053   -0.0800
     17 C17       -15.7753   -3.0258   59.0468 C.ar    1  ZINC000918875053   -0.1500
     18 C18       -14.7422   -2.8492   58.1450 C.ar    1  ZINC000918875053    0.1100
     19 F19       -14.7909   -3.4474   56.9347 F       1  ZINC000918875053   -0.1300
     20 C20       -12.4764   -0.7438   56.6670 C.3     1  ZINC000918875053    0.1200
     21 C21        -7.8398    0.6702   52.9055 C.2     1  ZINC000918875053    0.1800
     22 N22        -6.7894    1.4268   52.6967 N.2     1  ZINC000918875053   -0.4600
     23 C23        -5.9387    0.6746   51.9761 C.2     1  ZINC000918875053    0.2100
     24 C24        -4.5788    1.0934   51.4798 C.3     1  ZINC000918875053   -0.0900
     25 C25        -4.5198    2.2225   50.4489 C.3     1  ZINC000918875053   -0.1600
     26 C26        -4.0727    2.4779   51.8897 C.3     1  ZINC000918875053   -0.1500
     27 N27        -6.5047   -0.4796   51.7867 N.2     1  ZINC000918875053   -0.3700
     28 O28        -7.5950   -0.5048   52.3176 O.3     1  ZINC000918875053    0.1000
     29 H29       -10.9193    2.1165   53.3047 H       1  ZINC000918875053    0.0900
     30 H30        -9.5153    2.7435   52.4080 H       1  ZINC000918875053    0.0900
     31 H31       -10.2940    1.2274   51.8952 H       1  ZINC000918875053    0.0800
     32 H32       -10.3421   -3.0557   55.6954 H       1  ZINC000918875053    0.1300
     33 H33        -9.7440   -1.7864   56.8094 H       1  ZINC000918875053    0.1100
     34 H34       -12.7558   -0.8365   60.0039 H       1  ZINC000918875053    0.1400
     35 H35       -14.6058   -1.1497   61.5968 H       1  ZINC000918875053    0.1400
     36 H36       -16.5352   -2.5491   60.9872 H       1  ZINC000918875053    0.1400
     37 H37       -16.6237   -3.6393   58.7822 H       1  ZINC000918875053    0.1400
     38 H38       -12.1103    0.1318   57.2030 H       1  ZINC000918875053    0.1000
     39 H39       -13.4394   -0.5283   56.2041 H       1  ZINC000918875053    0.1000
     40 H40        -3.8431    0.2938   51.3935 H       1  ZINC000918875053    0.1400
     41 H41        -3.7453    2.1658   49.6841 H       1  ZINC000918875053    0.1100
     42 H42        -5.4647    2.6624   50.1297 H       1  ZINC000918875053    0.1000
     43 H43        -4.7233    3.0857   52.5184 H       1  ZINC000918875053    0.1000
     44 H44        -3.0040    2.5891   52.0726 H       1  ZINC000918875053    0.1100
@<TRIPOS>BOND
     1     1     2    1
     2     1    29    1
     3     1    30    1
     4     1    31    1
     5     2     3    1
     6     2     4    1
     7     2    21    1
     8     4     5    1
     9     5     6    2
    10     5     7    1
    11     7     8    1
    12     7    20    1
    13     7     9    1
    14     9    10    1
    15     9    32    1
    16     9    33    1
    17    10    11    2
    18    10    12   am
    19    12    13    1
    20    12    20    1
    21    13    18   ar
    22    13    14   ar
    23    14    15   ar
    24    14    34    1
    25    15    16   ar
    26    15    35    1
    27    16    17   ar
    28    16    36    1
    29    17    18   ar
    30    17    37    1
    31    18    19    1
    32    20    38    1
    33    20    39    1
    34    21    28    1
    35    21    22    2
    36    22    23    1
    37    23    24    1
    38    23    27    2
    39    24    26    1
    40    24    25    1
    41    24    40    1
    42    25    26    1
    43    25    41    1
    44    25    42    1
    45    26    43    1
    46    26    44    1
    47    27    28    1
@<TRIPOS>SUBSTRUCTURE
     1 ZINC000918875053        1 TEMP              0 ****  ****    0 ROOT


##########                                Name:    ZINC000002634904
##########                DOCK_Rotatable_Bonds:                   7
##########                         Heavy_Atoms:                  31
##########                    Molecular_Weight:             423.498
##########                DOCK_Rotatable_Bonds:                   7
##########                       Formal_Charge:        -7.45058e-08
##########                     HBond_Acceptors:                   7
##########                        HBond_Donors:                   1
##########                         Heavy_Atoms:                  31
##########                          Grid_Score:          -32.345768
##########                     Grid_vdw_energy:          -31.557806
##########                      Grid_es_energy:           -0.787963
##########           Internal_energy_repulsive:            5.557460

@<TRIPOS>MOLECULE
ZINC000002634904
 48 51 1 0 0
SMALL
USER_CHARGES


@<TRIPOS>ATOM
      1 N1          3.7829    2.9467   49.3830 N.1     1  ZINC000002634904   -0.4100
      2 C2          2.7100    2.7103   49.6718 C.1     1  ZINC000002634904    0.2500
      3 C3          1.3575    2.4123   50.0359 C.ar    1  ZINC000002634904   -0.0400
      4 C4          0.4442    2.0000   49.0614 C.ar    1  ZINC000002634904   -0.0500
      5 C5         -0.8555    1.7144   49.4151 C.ar    1  ZINC000002634904   -0.1400
      6 C6         -1.2600    1.8358   50.7406 C.ar    1  ZINC000002634904    0.1700
      7 N7         -2.5780    1.5454   51.0953 N.am    1  ZINC000002634904   -0.6700
      8 C8         -3.4087    2.5376   51.4719 C.2     1  ZINC000002634904    0.5400
      9 O9         -3.0108    3.6829   51.5025 O.2     1  ZINC000002634904   -0.5000
     10 C10        -4.8321    2.2240   51.8550 C.3     1  ZINC000002634904   -0.1700
     11 S11        -5.0877    0.4326   51.8123 S.3     1  ZINC000002634904    0.1300
     12 C12        -6.7384    0.3444   52.4223 C.ar    1  ZINC000002634904    0.2100
     13 N13        -7.5104   -0.6786   52.0733 N.ar    1  ZINC000002634904   -0.2900
     14 N14        -8.7218   -0.7844   52.4946 N.ar    1  ZINC000002634904   -0.1600
     15 C15        -9.2379    0.1385   53.2993 C.ar    1  ZINC000002634904    0.0600
     16 C16       -10.6323    0.0183   53.7857 C.ar    1  ZINC000002634904   -0.0500
     17 C17       -11.6037    0.9220   53.3565 C.ar    1  ZINC000002634904   -0.0800
     18 C18       -12.9007    0.8049   53.8129 C.ar    1  ZINC000002634904   -0.1200
     19 C19       -13.2378   -0.2061   54.6950 C.ar    1  ZINC000002634904   -0.1000
     20 C20       -12.2785   -1.1054   55.1243 C.ar    1  ZINC000002634904   -0.1200
     21 C21       -10.9796   -1.0024   54.6700 C.ar    1  ZINC000002634904   -0.0800
     22 C22        -8.4377    1.2334   53.6832 C.ar    1  ZINC000002634904    0.2300
     23 C23        -8.9727    2.2854   54.5789 C.ar    1  ZINC000002634904   -0.0700
     24 C24        -9.4972    3.4610   54.0429 C.ar    1  ZINC000002634904   -0.0700
     25 C25        -9.9944    4.4369   54.8821 C.ar    1  ZINC000002634904   -0.1200
     26 C26        -9.9733    4.2509   56.2528 C.ar    1  ZINC000002634904   -0.0900
     27 C27        -9.4538    3.0870   56.7906 C.ar    1  ZINC000002634904   -0.1200
     28 C28        -8.9590    2.1013   55.9612 C.ar    1  ZINC000002634904   -0.0700
     29 N29        -7.1889    1.2983   53.2274 N.ar    1  ZINC000002634904   -0.4400
     30 C30        -0.3538    2.2455   51.7131 C.ar    1  ZINC000002634904   -0.1200
     31 C31         0.9489    2.5276   51.3676 C.ar    1  ZINC000002634904   -0.0500
     32 H32         0.7576    1.9059   48.0321 H       1  ZINC000002634904    0.1400
     33 H33        -1.5618    1.3961   48.6627 H       1  ZINC000002634904    0.1400
     34 H34        -2.8963    0.6294   51.0707 H       1  ZINC000002634904    0.4200
     35 H35        -5.0277    2.5950   52.8611 H       1  ZINC000002634904    0.1300
     36 H36        -5.5121    2.7049   51.1519 H       1  ZINC000002634904    0.1300
     37 H37       -11.3415    1.7121   52.6684 H       1  ZINC000002634904    0.1300
     38 H38       -13.6539    1.5042   53.4812 H       1  ZINC000002634904    0.1300
     39 H39       -14.2541   -0.2932   55.0500 H       1  ZINC000002634904    0.1300
     40 H40       -12.5476   -1.8927   55.8130 H       1  ZINC000002634904    0.1300
     41 H41       -10.2315   -1.7054   55.0056 H       1  ZINC000002634904    0.1200
     42 H42        -9.5139    3.6075   52.9729 H       1  ZINC000002634904    0.1300
     43 H43       -10.4006    5.3480   54.4681 H       1  ZINC000002634904    0.1300
     44 H44       -10.3637    5.0175   56.9056 H       1  ZINC000002634904    0.1300
     45 H45        -9.4397    2.9475   57.8614 H       1  ZINC000002634904    0.1300
     46 H46        -8.5537    1.1931   56.3822 H       1  ZINC000002634904    0.1300
     47 H47        -0.6714    2.3382   52.7412 H       1  ZINC000002634904    0.1500
     48 H48         1.6520    2.8452   52.1233 H       1  ZINC000002634904    0.1400
@<TRIPOS>BOND
     1     1     2    3
     2     2     3    1
     3     3    31   ar
     4     3     4   ar
     5     4     5   ar
     6     4    32    1
     7     5     6   ar
     8     5    33    1
     9     6     7    1
    10     6    30   ar
    11     7     8   am
    12     7    34    1
    13     8     9    2
    14     8    10    1
    15    10    11    1
    16    10    35    1
    17    10    36    1
    18    11    12    1
    19    12    29   ar
    20    12    13   ar
    21    13    14   ar
    22    14    15   ar
    23    15    16    1
    24    15    22   ar
    25    16    21   ar
    26    16    17   ar
    27    17    18   ar
    28    17    37    1
    29    18    19   ar
    30    18    38    1
    31    19    20   ar
    32    19    39    1
    33    20    21   ar
    34    20    40    1
    35    21    41    1
    36    22    23    1
    37    22    29   ar
    38    23    28   ar
    39    23    24   ar
    40    24    25   ar
    41    24    42    1
    42    25    26   ar
    43    25    43    1
    44    26    27   ar
    45    26    44    1
    46    27    28   ar
    47    27    45    1
    48    28    46    1
    49    30    31   ar
    50    30    47    1
    51    31    48    1
@<TRIPOS>SUBSTRUCTURE
     1 ZINC000002634904        1 TEMP              0 ****  ****    0 ROOT


##########                                Name:    ZINC000426037318
##########                DOCK_Rotatable_Bonds:                   7
##########                         Heavy_Atoms:                  28
##########                    Molecular_Weight:             421.904
##########                DOCK_Rotatable_Bonds:                   7
##########                       Formal_Charge:         -0.00999981
##########                     HBond_Acceptors:                   9
##########                        HBond_Donors:                   1
##########                         Heavy_Atoms:                  28
##########                          Grid_Score:          -32.337112
##########                     Grid_vdw_energy:          -31.867109
##########                      Grid_es_energy:           -0.470004
##########           Internal_energy_repulsive:           20.077188

@<TRIPOS>MOLECULE
ZINC000426037318
 48 50 1 0 0
SMALL
USER_CHARGES


@<TRIPOS>ATOM
      1 C1        -12.3318   -0.0652   51.7674 C.3     1  ZINC000426037318    0.0300
      2 O2        -11.2458   -0.9694   51.9794 O.3     1  ZINC000426037318   -0.3800
      3 C3        -10.4643   -0.6774   53.1395 C.3     1  ZINC000426037318    0.1300
      4 C4         -9.3324    0.2439   52.7640 C.ar    1  ZINC000426037318    0.3900
      5 N5         -9.5541    1.5455   52.7262 N.ar    1  ZINC000426037318   -0.5700
      6 C6         -8.5955    2.3972   52.4033 C.ar    1  ZINC000426037318    0.4400
      7 O7         -8.8410    3.7277   52.3702 O.3     1  ZINC000426037318   -0.2800
      8 C8        -10.1941    4.1428   52.5666 C.3     1  ZINC000426037318    0.0300
      9 C9         -7.3034    1.8941   52.0919 C.ar    1  ZINC000426037318   -0.2000
     10 C10        -6.1370    2.5755   51.7257 C.2     1  ZINC000426037318    0.0500
     11 C11        -6.0884    4.0765   51.6003 C.3     1  ZINC000426037318   -0.1200
     12 C12        -5.0675    1.8043   51.4946 C.2     1  ZINC000426037318   -0.2700
     13 C13        -3.7455    2.3067   51.1002 C.2     1  ZINC000426037318    0.6000
     14 O14        -3.3622    2.1752   49.9527 O.2     1  ZINC000426037318   -0.5000
     15 N15        -2.9565    2.9134   52.0089 N.am    1  ZINC000426037318   -0.6600
     16 C16        -1.6952    3.3926   51.6325 C.ar    1  ZINC000426037318    0.1200
     17 C17        -0.7580    2.5268   51.0862 C.ar    1  ZINC000426037318   -0.0700
     18 C18         0.4855    3.0002   50.7148 C.ar    1  ZINC000426037318   -0.0900
     19 C19         1.5027    2.0600   50.1212 C.3     1  ZINC000426037318   -0.1100
     20 C20         0.7982    4.3403   50.8877 C.ar    1  ZINC000426037318    0.1300
     21 O21         2.0224    4.8051   50.5214 O.3     1  ZINC000426037318   -0.3100
     22 C22         2.2763    6.1962   50.7266 C.3     1  ZINC000426037318    0.0200
     23 C23        -0.1374    5.2071   51.4337 C.ar    1  ZINC000426037318   -0.1800
     24 C24        -1.3834    4.7367   51.8008 C.ar    1  ZINC000426037318   -0.0300
     25 Cl25       -2.5547    5.8211   52.4835 Cl      1  ZINC000426037318   -0.0600
     26 S26        -5.4626    0.1101   51.7286 S.3     1  ZINC000426037318    0.2200
     27 C27        -7.1242    0.5042   52.1478 C.ar    1  ZINC000426037318    0.1300
     28 N28        -8.1568   -0.2735   52.4904 N.ar    1  ZINC000426037318   -0.5000
     29 H29       -12.8753   -0.3548   50.8680 H       1  ZINC000426037318    0.0900
     30 H30       -13.0042   -0.0977   52.6246 H       1  ZINC000426037318    0.0500
     31 H31       -11.9442    0.9466   51.6478 H       1  ZINC000426037318    0.0500
     32 H32       -11.0921   -0.1951   53.8887 H       1  ZINC000426037318    0.0900
     33 H33       -10.0589   -1.6036   53.5470 H       1  ZINC000426037318    0.0800
     34 H34       -10.5394    3.8055   53.5438 H       1  ZINC000426037318    0.0700
     35 H35       -10.2516    5.2301   52.5164 H       1  ZINC000426037318    0.1100
     36 H36       -10.8236    3.7094   51.7893 H       1  ZINC000426037318    0.0700
     37 H37        -5.8091    4.5123   52.5596 H       1  ZINC000426037318    0.0900
     38 H38        -5.3516    4.3545   50.8467 H       1  ZINC000426037318    0.1000
     39 H39        -7.0692    4.4484   51.3041 H       1  ZINC000426037318    0.0800
     40 H40        -3.2621    3.0183   52.9236 H       1  ZINC000426037318    0.4100
     41 H41        -1.0008    1.4831   50.9517 H       1  ZINC000426037318    0.1600
     42 H42         1.3889    2.0387   49.0374 H       1  ZINC000426037318    0.0700
     43 H43         2.5058    2.4029   50.3746 H       1  ZINC000426037318    0.0700
     44 H44         1.3492    1.0582   50.5224 H       1  ZINC000426037318    0.0700
     45 H45         1.5572    6.7847   50.1568 H       1  ZINC000426037318    0.0600
     46 H46         2.1792    6.4309   51.7866 H       1  ZINC000426037318    0.0600
     47 H47         3.2863    6.4344   50.3929 H       1  ZINC000426037318    0.1000
     48 H48         0.1069    6.2506   51.5680 H       1  ZINC000426037318    0.1500
@<TRIPOS>BOND
     1     1     2    1
     2     1    29    1
     3     1    30    1
     4     1    31    1
     5     2     3    1
     6     3     4    1
     7     3    32    1
     8     3    33    1
     9     4    28   ar
    10     4     5   ar
    11     5     6   ar
    12     6     7    1
    13     6     9   ar
    14     7     8    1
    15     8    34    1
    16     8    35    1
    17     8    36    1
    18     9    27   ar
    19     9    10    1
    20    10    11    1
    21    10    12    2
    22    11    37    1
    23    11    38    1
    24    11    39    1
    25    12    13    1
    26    12    26    1
    27    13    14    2
    28    13    15   am
    29    15    16    1
    30    15    40    1
    31    16    24   ar
    32    16    17   ar
    33    17    18   ar
    34    17    41    1
    35    18    19    1
    36    18    20   ar
    37    19    42    1
    38    19    43    1
    39    19    44    1
    40    20    21    1
    41    20    23   ar
    42    21    22    1
    43    22    45    1
    44    22    46    1
    45    22    47    1
    46    23    24   ar
    47    23    48    1
    48    24    25    1
    49    26    27    1
    50    27    28   ar
@<TRIPOS>SUBSTRUCTURE
     1 ZINC000426037318        1 TEMP              0 ****  ****    0 ROOT


##########                                Name:    ZINC000286156371
##########                DOCK_Rotatable_Bonds:                   7
##########                         Heavy_Atoms:                  25
##########                    Molecular_Weight:             350.418
##########                DOCK_Rotatable_Bonds:                   7
##########                       Formal_Charge:          0.00999908
##########                     HBond_Acceptors:                   8
##########                        HBond_Donors:                   2
##########                         Heavy_Atoms:                  25
##########                          Grid_Score:          -32.335636
##########                     Grid_vdw_energy:          -31.692726
##########                      Grid_es_energy:           -0.642909
##########           Internal_energy_repulsive:           37.930183

@<TRIPOS>MOLECULE
ZINC000286156371
 51 53 1 0 0
SMALL
USER_CHARGES


@<TRIPOS>ATOM
      1 C1         -7.6132    6.3022   50.1855 C.3     1  <0>        -0.1800
      2 C2         -8.9481    5.5616   50.2895 C.3     1  <0>         0.1400
      3 C3        -10.0398    6.5378   50.7321 C.3     1  <0>        -0.1800
      4 C4         -9.3125    4.9734   48.9249 C.3     1  <0>        -0.1400
      5 O5         -8.8327    4.4906   51.2630 O.3     1  <0>        -0.3600
      6 C6         -7.9099    3.5407   51.0204 C.2     1  <0>         0.6800
      7 O7         -7.2250    3.6009   50.0185 O.2     1  <0>        -0.5600
      8 N8         -7.7459    2.5230   51.8886 N.am    1  <0>        -0.5800
      9 C9         -8.5053    2.3279   53.1371 C.3     1  <0>         0.0700
     10 C10        -8.4184    0.8074   53.4207 C.3     1  <0>         0.0900
     11 H11        -8.5440    0.6005   54.4834 H       1  <0>         0.0900
     12 O12        -9.3768    0.0860   52.6442 O.3     1  <0>        -0.5500
     13 C13        -6.9723    0.4867   52.9587 C.3     1  <0>        -0.1200
     14 C14        -6.7845    1.4201   51.7443 C.3     1  <0>         0.1500
     15 H15        -6.9773    0.8718   50.8222 H       1  <0>         0.1100
     16 C16        -5.3805    1.9675   51.7309 C.2     1  <0>         0.5200
     17 O17        -5.1722    3.1111   52.0769 O.2     1  <0>        -0.4900
     18 N18        -4.3564    1.1862   51.3345 N.am    1  <0>        -0.6300
     19 C19        -3.0504    1.6947   51.3236 C.2     1  <0>         0.3000
     20 N20        -2.1459    1.4779   50.3955 N.2     1  <0>        -0.3200
     21 N21        -0.9822    2.1612   50.7556 N.pl3   1  <0>        -0.3600
     22 C22         0.2859    2.2109   50.0215 C.3     1  <0>         0.1400
     23 C23         1.1101    3.3943   50.5392 C.3     1  <0>        -0.1400
     24 C24         1.1859    3.3365   52.0678 C.3     1  <0>        -0.1300
     25 C25        -0.1988    3.6430   52.6533 C.3     1  <0>        -0.0600
     26 C26        -1.2146    2.7944   51.9289 C.2     1  <0>         0.0900
     27 C27        -2.4821    2.5305   52.3008 C.2     1  <0>        -0.2600
     28 H28        -7.3536    6.7213   51.1577 H       1  <0>         0.0900
     29 H29        -6.8355    5.6067   49.8702 H       1  <0>         0.0600
     30 H30        -7.6998    7.1062   49.4547 H       1  <0>         0.0700
     31 H31       -10.1264    7.3418   50.0013 H       1  <0>         0.0700
     32 H32       -10.9908    6.0102   50.8060 H       1  <0>         0.0600
     33 H33        -9.7802    6.9569   51.7043 H       1  <0>         0.0900
     34 H34        -8.5347    4.2779   48.6095 H       1  <0>         0.0700
     35 H35       -10.2634    4.4458   48.9989 H       1  <0>         0.0700
     36 H36        -9.3990    5.7775   48.1940 H       1  <0>         0.0800
     37 H37        -8.0493    2.8922   53.9506 H       1  <0>         0.0800
     38 H38        -9.5438    2.6295   53.0005 H       1  <0>         0.0900
     39 H39        -9.2862    0.2136   51.6899 H       1  <0>         0.3900
     40 H40        -6.2551    0.7219   53.7452 H       1  <0>         0.1000
     41 H41        -6.8866   -0.5572   52.6568 H       1  <0>         0.1100
     42 H42        -4.5231    0.2718   51.0566 H       1  <0>         0.4200
     43 H43         0.8369    1.2841   50.1811 H       1  <0>         0.0800
     44 H44         0.0872    2.3415   48.9577 H       1  <0>         0.0900
     45 H45         2.1167    3.3451   50.1238 H       1  <0>         0.0900
     46 H46         0.6369    4.3276   50.2342 H       1  <0>         0.0800
     47 H47         1.5008    2.3406   52.3794 H       1  <0>         0.0700
     48 H48         1.9038    4.0748   52.4250 H       1  <0>         0.0800
     49 H49        -0.2100    3.4028   53.7165 H       1  <0>         0.0900
     50 H50        -0.4328    4.6981   52.5115 H       1  <0>         0.0900
     51 H51        -2.9730    2.8940   53.1914 H       1  <0>         0.1700
@<TRIPOS>BOND
     1     1     2    1
     2     1    28    1
     3     1    29    1
     4     1    30    1
     5     2     3    1
     6     2     4    1
     7     2     5    1
     8     3    31    1
     9     3    32    1
    10     3    33    1
    11     4    34    1
    12     4    35    1
    13     4    36    1
    14     5     6    1
    15     6     7    2
    16     6     8   am
    17     8    14    1
    18     8     9    1
    19     9    10    1
    20     9    37    1
    21     9    38    1
    22    10    11    1
    23    10    12    1
    24    10    13    1
    25    12    39    1
    26    13    14    1
    27    13    40    1
    28    13    41    1
    29    14    15    1
    30    14    16    1
    31    16    17    2
    32    16    18   am
    33    18    19    1
    34    18    42    1
    35    19    27    1
    36    19    20    2
    37    20    21    1
    38    21    26    1
    39    21    22    1
    40    22    23    1
    41    22    43    1
    42    22    44    1
    43    23    24    1
    44    23    45    1
    45    23    46    1
    46    24    25    1
    47    24    47    1
    48    24    48    1
    49    25    26    1
    50    25    49    1
    51    25    50    1
    52    26    27    2
    53    27    51    1
@<TRIPOS>SUBSTRUCTURE
     1 <0>         1 TEMP              0 ****  ****    0 ROOT


##########                                Name:    ZINC000266467123
##########                DOCK_Rotatable_Bonds:                   9
##########                         Heavy_Atoms:                  25
##########                    Molecular_Weight:             337.421
##########                DOCK_Rotatable_Bonds:                   9
##########                       Formal_Charge:                0.02
##########                     HBond_Acceptors:                   5
##########                        HBond_Donors:                   3
##########                         Heavy_Atoms:                  25
##########                          Grid_Score:          -32.273556
##########                     Grid_vdw_energy:          -29.359791
##########                      Grid_es_energy:           -2.913765
##########           Internal_energy_repulsive:            6.716577

@<TRIPOS>MOLECULE
ZINC000266467123
 48 50 1 0 0
SMALL
USER_CHARGES


@<TRIPOS>ATOM
      1 C1         -0.9014    4.5423   54.3104 C.3     1  <0>        -0.1600
      2 C2         -1.5025    4.2376   52.9368 C.3     1  <0>         0.1500
      3 H3         -2.0642    5.1032   52.5859 H       1  <0>         0.1200
      4 N4         -2.3990    3.0835   53.0414 N.am    1  <0>        -0.7300
      5 C5         -3.2896    2.8310   52.0619 C.2     1  <0>         0.7100
      6 O6         -3.3482    3.5602   51.0908 O.2     1  <0>        -0.5900
      7 N7         -4.1153    1.7703   52.1589 N.am    1  <0>        -0.7100
      8 C8         -5.0822    1.4949   51.0933 C.3     1  <0>         0.1100
      9 H9         -4.6553    1.1832   50.1400 H       1  <0>         0.1400
     10 C10        -6.3518    2.3478   51.0536 C.3     1  <0>        -0.1900
     11 C11        -6.4256    0.8850   51.4987 C.3     1  <0>        -0.1500
     12 H12        -6.8827    0.1725   50.8121 H       1  <0>         0.1200
     13 C13        -6.6572    0.6100   52.9858 C.3     1  <0>        -0.0500
     14 C14        -8.1325    0.4372   53.2410 C.ar    1  <0>        -0.0800
     15 C15        -8.7968    1.3154   54.0767 C.ar    1  <0>        -0.1100
     16 C16       -10.1499    1.1569   54.3106 C.ar    1  <0>        -0.1200
     17 C17       -10.8388    0.1207   53.7087 C.ar    1  <0>        -0.1200
     18 C18       -10.1746   -0.7569   52.8722 C.ar    1  <0>        -0.1200
     19 C19        -8.8223   -0.5960   52.6348 C.ar    1  <0>        -0.1200
     20 C20        -0.3961    3.9275   51.9618 C.2     1  <0>         0.5100
     21 O21         0.0795    4.8127   51.2828 O.2     1  <0>        -0.5100
     22 N22         0.0649    2.6665   51.8446 N.am    1  <0>        -0.6700
     23 C23         1.0923    2.3786   50.9393 C.ar    1  <0>         0.1400
     24 C24         2.4176    2.4313   51.3511 C.ar    1  <0>        -0.1400
     25 C25         3.4294    2.1466   50.4550 C.ar    1  <0>        -0.1000
     26 C26         3.1240    1.8098   49.1491 C.ar    1  <0>        -0.1300
     27 C27         1.8054    1.7568   48.7359 C.ar    1  <0>        -0.1000
     28 C28         0.7887    2.0338   49.6288 C.ar    1  <0>        -0.1200
     29 H29        -0.2345    5.4010   54.2327 H       1  <0>         0.0700
     30 H30        -1.7017    4.7666   55.0157 H       1  <0>         0.0800
     31 H31        -0.3398    3.6766   54.6614 H       1  <0>         0.0700
     32 H32        -2.3514    2.5010   53.8156 H       1  <0>         0.4100
     33 H33        -4.0694    1.1893   52.9342 H       1  <0>         0.4000
     34 H34        -6.4677    3.1139   51.8203 H       1  <0>         0.1000
     35 H35        -6.7604    2.5969   50.0742 H       1  <0>         0.1000
     36 H36        -6.1298   -0.2995   53.2735 H       1  <0>         0.0800
     37 H37        -6.2827    1.4484   53.5730 H       1  <0>         0.0700
     38 H38        -8.2585    2.1250   54.5470 H       1  <0>         0.1200
     39 H39       -10.6688    1.8426   54.9642 H       1  <0>         0.1200
     40 H40       -11.8958   -0.0036   53.8921 H       1  <0>         0.1200
     41 H41       -10.7127   -1.5668   52.4022 H       1  <0>         0.1200
     42 H42        -8.3034   -1.2816   51.9814 H       1  <0>         0.1200
     43 H43        -0.3154    1.9586   52.3877 H       1  <0>         0.4100
     44 H44         2.6567    2.6950   52.3706 H       1  <0>         0.1300
     45 H45         4.4602    2.1875   50.7746 H       1  <0>         0.1300
     46 H46         3.9169    1.5879   48.4503 H       1  <0>         0.1200
     47 H47         1.5701    1.4941   47.7152 H       1  <0>         0.1300
     48 H48        -0.2410    1.9924   49.3055 H       1  <0>         0.1400
@<TRIPOS>BOND
     1     1     2    1
     2     1    29    1
     3     1    30    1
     4     1    31    1
     5     2     3    1
     6     2     4    1
     7     2    20    1
     8     4     5   am
     9     4    32    1
    10     5     6    2
    11     5     7   am
    12     7     8    1
    13     7    33    1
    14     8     9    1
    15     8    11    1
    16     8    10    1
    17    10    11    1
    18    10    34    1
    19    10    35    1
    20    11    12    1
    21    11    13    1
    22    13    14    1
    23    13    36    1
    24    13    37    1
    25    14    19   ar
    26    14    15   ar
    27    15    16   ar
    28    15    38    1
    29    16    17   ar
    30    16    39    1
    31    17    18   ar
    32    17    40    1
    33    18    19   ar
    34    18    41    1
    35    19    42    1
    36    20    21    2
    37    20    22   am
    38    22    23    1
    39    22    43    1
    40    23    28   ar
    41    23    24   ar
    42    24    25   ar
    43    24    44    1
    44    25    26   ar
    45    25    45    1
    46    26    27   ar
    47    26    46    1
    48    27    28   ar
    49    27    47    1
    50    28    48    1
@<TRIPOS>SUBSTRUCTURE
     1 <0>         1 TEMP              0 ****  ****    0 ROOT


##########                                Name:    ZINC000590699876
##########                DOCK_Rotatable_Bonds:                   9
##########                         Heavy_Atoms:                  30
##########                    Molecular_Weight:              421.54
##########                DOCK_Rotatable_Bonds:                   9
##########                       Formal_Charge:          -0.0300004
##########                     HBond_Acceptors:                   9
##########                        HBond_Donors:                   1
##########                         Heavy_Atoms:                  30
##########                          Grid_Score:          -32.262482
##########                     Grid_vdw_energy:          -31.973185
##########                      Grid_es_energy:           -0.289297
##########           Internal_energy_repulsive:          105.340469

@<TRIPOS>MOLECULE
ZINC000590699876
 65 67 1 0 0
SMALL
USER_CHARGES


@<TRIPOS>ATOM
      1 C1        -16.0525   -1.1168   60.8808 C.3     1  ZINC000590699876   -0.1700
      2 C2        -15.6811   -2.0798   59.7828 C.2     1  ZINC000590699876    0.5100
      3 O3        -14.6005   -2.6302   59.7989 O.2     1  ZINC000590699876   -0.5500
      4 N4        -16.5497   -2.3295   58.7831 N.am    1  ZINC000590699876   -0.7200
      5 C5        -16.1894   -3.2671   57.7166 C.3     1  ZINC000590699876    0.1100
      6 C6        -14.9985   -2.7356   56.9614 C.2     1  ZINC000590699876    0.5300
      7 O7        -13.9318   -3.3085   57.0303 O.2     1  ZINC000590699876   -0.5200
      8 N8        -15.1189   -1.6235   56.2097 N.am    1  ZINC000590699876   -0.6000
      9 C9        -16.3506   -0.8317   56.0379 C.3     1  ZINC000590699876    0.1000
     10 C10       -15.8600    0.5861   55.6518 C.3     1  ZINC000590699876   -0.1300
     11 C11       -14.6363    0.2589   54.7558 C.3     1  ZINC000590699876   -0.1300
     12 C12       -14.0421   -0.9955   55.4302 C.3     1  ZINC000590699876    0.1200
     13 H13       -13.6867   -1.6916   54.6705 H       1  ZINC000590699876    0.1000
     14 C14       -12.9040   -0.6002   56.3354 C.2     1  ZINC000590699876    0.5100
     15 O15       -13.1091   -0.3941   57.5129 O.2     1  ZINC000590699876   -0.5200
     16 N16       -11.6582   -0.4756   55.8366 N.am    1  ZINC000590699876   -0.6100
     17 C17       -11.3889   -0.7132   54.4102 C.3     1  ZINC000590699876    0.1000
     18 C18       -10.6155    0.4873   53.8544 C.3     1  ZINC000590699876    0.0400
     19 N19        -9.4240    0.7233   54.6806 N.3     1  ZINC000590699876   -0.5200
     20 C20        -8.5652    1.7546   54.0833 C.3     1  ZINC000590699876    0.0400
     21 C21        -7.5305    1.0998   53.2050 C.2     1  ZINC000590699876    0.5200
     22 O22        -7.6032   -0.0865   52.9633 O.2     1  ZINC000590699876   -0.5100
     23 N23        -6.5244    1.8324   52.6879 N.am    1  ZINC000590699876   -0.6100
     24 C24        -6.4229    3.2705   52.9714 C.3     1  ZINC000590699876    0.1100
     25 C25        -6.3289    4.0293   51.6440 C.3     1  ZINC000590699876   -0.1400
     26 C26        -5.1673    3.4676   50.8211 C.3     1  ZINC000590699876   -0.1200
     27 C27        -5.4239    1.9901   50.5157 C.3     1  ZINC000590699876   -0.1300
     28 C28        -5.5045    1.2070   51.8349 C.3     1  ZINC000590699876    0.1400
     29 H29        -4.5364    1.2328   52.3349 H       1  ZINC000590699876    0.0700
     30 C30        -5.8947   -0.2442   51.5469 C.3     1  ZINC000590699876   -0.1400
     31 C31        -9.7923    1.0777   56.0578 C.3     1  ZINC000590699876    0.0400
     32 C32       -10.5330   -0.0926   56.7028 C.3     1  ZINC000590699876    0.1200
     33 H33       -15.2311   -1.0438   61.5934 H       1  ZINC000590699876    0.1000
     34 H34       -16.2493   -0.1344   60.4514 H       1  ZINC000590699876    0.0900
     35 H35       -16.9461   -1.4753   61.3917 H       1  ZINC000590699876    0.0900
     36 H36       -17.4135   -1.8885   58.7696 H       1  ZINC000590699876    0.4100
     37 H37       -15.9409   -4.2349   58.1523 H       1  ZINC000590699876    0.1000
     38 H38       -17.0313   -3.3815   57.0338 H       1  ZINC000590699876    0.1000
     39 H39       -16.9632   -1.2515   55.2399 H       1  ZINC000590699876    0.0800
     40 H40       -16.9129   -0.7976   56.9710 H       1  ZINC000590699876    0.0800
     41 H41       -16.6232    1.1240   55.0895 H       1  ZINC000590699876    0.0900
     42 H42       -15.5582    1.1490   56.5351 H       1  ZINC000590699876    0.0800
     43 H43       -14.9526    0.0398   53.7360 H       1  ZINC000590699876    0.1000
     44 H44       -13.9178    1.0784   54.7701 H       1  ZINC000590699876    0.0900
     45 H45       -10.7919   -1.6180   54.2962 H       1  ZINC000590699876    0.0800
     46 H46       -12.3309   -0.8226   53.8730 H       1  ZINC000590699876    0.0900
     47 H47       -10.3115    0.2805   52.8282 H       1  ZINC000590699876    0.0900
     48 H48       -11.2529    1.3713   53.8742 H       1  ZINC000590699876    0.0400
     49 H49        -9.1738    2.4323   53.4846 H       1  ZINC000590699876    0.1000
     50 H50        -8.0678    2.3159   54.8743 H       1  ZINC000590699876    0.0600
     51 H51        -7.3072    3.5984   53.5178 H       1  ZINC000590699876    0.0800
     52 H52        -5.5306    3.4635   53.5667 H       1  ZINC000590699876    0.0700
     53 H53        -7.2594    3.9089   51.0893 H       1  ZINC000590699876    0.0700
     54 H54        -6.1567    5.0875   51.8412 H       1  ZINC000590699876    0.0800
     55 H55        -5.0826    4.0222   49.8866 H       1  ZINC000590699876    0.0700
     56 H56        -4.2407    3.5659   51.3866 H       1  ZINC000590699876    0.0600
     57 H57        -6.3630    1.8888   49.9716 H       1  ZINC000590699876    0.0700
     58 H58        -4.6075    1.5968   49.9098 H       1  ZINC000590699876    0.0700
     59 H59        -5.1782   -0.6819   50.8517 H       1  ZINC000590699876    0.0400
     60 H60        -5.8922   -0.8125   52.4769 H       1  ZINC000590699876    0.0700
     61 H61        -6.8915   -0.2719   51.1067 H       1  ZINC000590699876    0.0700
     62 H62        -8.8911    1.2992   56.6297 H       1  ZINC000590699876    0.1100
     63 H63       -10.4411    1.9536   56.0469 H       1  ZINC000590699876    0.0300
     64 H64       -10.9076    0.2061   57.6818 H       1  ZINC000590699876    0.0900
     65 H65        -9.8559   -0.9401   56.8098 H       1  ZINC000590699876    0.0800
@<TRIPOS>BOND
     1     1     2    1
     2     1    33    1
     3     1    34    1
     4     1    35    1
     5     2     3    2
     6     2     4   am
     7     4     5    1
     8     4    36    1
     9     5     6    1
    10     5    37    1
    11     5    38    1
    12     6     7    2
    13     6     8   am
    14     8    12    1
    15     8     9    1
    16     9    10    1
    17     9    39    1
    18     9    40    1
    19    10    11    1
    20    10    41    1
    21    10    42    1
    22    11    12    1
    23    11    43    1
    24    11    44    1
    25    12    13    1
    26    12    14    1
    27    14    15    2
    28    14    16   am
    29    16    32    1
    30    16    17    1
    31    17    18    1
    32    17    45    1
    33    17    46    1
    34    18    19    1
    35    18    47    1
    36    18    48    1
    37    19    20    1
    38    19    31    1
    39    20    21    1
    40    20    49    1
    41    20    50    1
    42    21    22    2
    43    21    23   am
    44    23    28    1
    45    23    24    1
    46    24    25    1
    47    24    51    1
    48    24    52    1
    49    25    26    1
    50    25    53    1
    51    25    54    1
    52    26    27    1
    53    26    55    1
    54    26    56    1
    55    27    28    1
    56    27    57    1
    57    27    58    1
    58    28    29    1
    59    28    30    1
    60    30    59    1
    61    30    60    1
    62    30    61    1
    63    31    32    1
    64    31    62    1
    65    31    63    1
    66    32    64    1
    67    32    65    1
@<TRIPOS>SUBSTRUCTURE
     1 ZINC000590699876        1 TEMP              0 ****  ****    0 ROOT


##########                                Name:    ZINC000859608860
##########                DOCK_Rotatable_Bonds:                   8
##########                         Heavy_Atoms:                  24
##########                    Molecular_Weight:             394.268
##########                DOCK_Rotatable_Bonds:                   8
##########                       Formal_Charge:          -0.0200003
##########                     HBond_Acceptors:                   6
##########                        HBond_Donors:                   1
##########                         Heavy_Atoms:                  24
##########                          Grid_Score:          -32.237125
##########                     Grid_vdw_energy:          -31.851065
##########                      Grid_es_energy:           -0.386060
##########           Internal_energy_repulsive:            6.516489

@<TRIPOS>MOLECULE
ZINC000859608860
 44 45 1 0 0
SMALL
USER_CHARGES


@<TRIPOS>ATOM
      1 C1         -9.0079    1.3226   61.9091 C.3     1  ZINC000859608860   -0.1400
      2 C2         -8.9969    0.7441   60.4927 C.3     1  ZINC000859608860   -0.0800
      3 C3         -9.4368    1.8208   59.4987 C.3     1  ZINC000859608860   -0.1400
      4 C4         -7.5828    0.2754   60.1443 C.3     1  ZINC000859608860   -0.1400
      5 C5         -9.9602   -0.4423   60.4189 C.3     1  ZINC000859608860    0.1300
      6 N6         -9.8735   -1.0598   59.0932 N.am    1  ZINC000859608860   -0.7300
      7 C7        -10.9592   -1.6455   58.5504 C.2     1  ZINC000859608860    0.5100
      8 O8        -12.0075   -1.6626   59.1600 O.2     1  ZINC000859608860   -0.5100
      9 C9        -10.8706   -2.2792   57.1860 C.3     1  ZINC000859608860    0.0500
     10 O10       -11.9240   -1.7510   56.3376 O.3     1  ZINC000859608860   -0.3100
     11 C11       -11.6796   -0.5806   55.7152 C.2     1  ZINC000859608860    0.5600
     12 O12       -12.1859    0.4445   56.1278 O.2     1  ZINC000859608860   -0.5100
     13 C13       -10.8000   -0.5440   54.5361 C.2     1  ZINC000859608860   -0.0400
     14 C14        -9.7048    0.2545   54.3715 C.2     1  ZINC000859608860    0.0500
     15 N15        -9.1895   -0.0339   53.1456 N.pl3   1  ZINC000859608860   -0.4100
     16 C16        -8.0569    0.5539   52.5638 C.ar    1  ZINC000859608860    0.1400
     17 C17        -7.9303    1.9360   52.5308 C.ar    1  ZINC000859608860   -0.1200
     18 C18        -6.8136    2.5124   51.9577 C.ar    1  ZINC000859608860   -0.0600
     19 C19        -5.8218    1.7136   51.4167 C.ar    1  ZINC000859608860   -0.1000
     20 Br20       -4.2944    2.5063   50.6328 Br      1  ZINC000859608860   -0.0300
     21 C21        -5.9455    0.3360   51.4488 C.ar    1  ZINC000859608860   -0.0600
     22 C22        -7.0579   -0.2455   52.0251 C.ar    1  ZINC000859608860   -0.1200
     23 C23        -9.9728   -0.9965   52.5863 C.2     1  ZINC000859608860    0.2000
     24 N24       -10.9269   -1.3024   53.4169 N.2     1  ZINC000859608860   -0.4300
     25 H25       -10.0153    1.6566   62.1574 H       1  ZINC000859608860    0.0500
     26 H26        -8.6945    0.5555   62.6172 H       1  ZINC000859608860    0.0600
     27 H27        -8.3216    2.1678   61.9617 H       1  ZINC000859608860    0.0600
     28 H28        -8.7505    2.6660   59.5513 H       1  ZINC000859608860    0.0600
     29 H29        -9.4289    1.4088   58.4896 H       1  ZINC000859608860    0.0600
     30 H30       -10.4442    2.1548   59.7470 H       1  ZINC000859608860    0.0500
     31 H31        -7.2694   -0.4917   60.8524 H       1  ZINC000859608860    0.0600
     32 H32        -7.5750   -0.1367   59.1352 H       1  ZINC000859608860    0.0600
     33 H33        -6.8965    1.1206   60.1969 H       1  ZINC000859608860    0.0600
     34 H34        -9.6924   -1.1756   61.1795 H       1  ZINC000859608860    0.0700
     35 H35       -10.9786   -0.0947   60.5919 H       1  ZINC000859608860    0.0700
     36 H36        -9.0348   -1.0472   58.6062 H       1  ZINC000859608860    0.4000
     37 H37        -9.9003   -2.0541   56.7431 H       1  ZINC000859608860    0.1000
     38 H38       -10.9859   -3.3591   57.2787 H       1  ZINC000859608860    0.1000
     39 H39        -9.3216    0.9760   55.0779 H       1  ZINC000859608860    0.2000
     40 H40        -8.7044    2.5599   52.9525 H       1  ZINC000859608860    0.1400
     41 H41        -6.7149    3.5875   51.9314 H       1  ZINC000859608860    0.1500
     42 H42        -5.1699   -0.2854   51.0259 H       1  ZINC000859608860    0.1500
     43 H43        -7.1540   -1.3209   52.0498 H       1  ZINC000859608860    0.1500
     44 H44        -9.8241   -1.4380   51.6120 H       1  ZINC000859608860    0.2200
@<TRIPOS>BOND
     1     1     2    1
     2     1    25    1
     3     1    26    1
     4     1    27    1
     5     2     3    1
     6     2     4    1
     7     2     5    1
     8     3    28    1
     9     3    29    1
    10     3    30    1
    11     4    31    1
    12     4    32    1
    13     4    33    1
    14     5     6    1
    15     5    34    1
    16     5    35    1
    17     6     7   am
    18     6    36    1
    19     7     8    2
    20     7     9    1
    21     9    10    1
    22     9    37    1
    23     9    38    1
    24    10    11    1
    25    11    12    2
    26    11    13    1
    27    13    24    1
    28    13    14    2
    29    14    15    1
    30    14    39    1
    31    15    16    1
    32    15    23    1
    33    16    22   ar
    34    16    17   ar
    35    17    18   ar
    36    17    40    1
    37    18    19   ar
    38    18    41    1
    39    19    20    1
    40    19    21   ar
    41    21    22   ar
    42    21    42    1
    43    22    43    1
    44    23    24    2
    45    23    44    1
@<TRIPOS>SUBSTRUCTURE
     1 ZINC000859608860        1 TEMP              0 ****  ****    0 ROOT


##########                                Name:    ZINC000642096826
##########                DOCK_Rotatable_Bonds:                  12
##########                         Heavy_Atoms:                  25
##########                    Molecular_Weight:             345.485
##########                DOCK_Rotatable_Bonds:                  12
##########                       Formal_Charge:          0.00999919
##########                     HBond_Acceptors:                   5
##########                        HBond_Donors:                   1
##########                         Heavy_Atoms:                  25
##########                          Grid_Score:          -32.207558
##########                     Grid_vdw_energy:          -32.071438
##########                      Grid_es_energy:           -0.136121
##########           Internal_energy_repulsive:           36.790642

@<TRIPOS>MOLECULE
ZINC000642096826
 56 57 1 0 0
SMALL
USER_CHARGES


@<TRIPOS>ATOM
      1 C1          2.6933    0.9054   43.0671 C.3     1  ZINC000642096826   -0.1500
      2 C2          2.8609    1.6703   44.3816 C.3     1  ZINC000642096826   -0.1400
      3 C3          3.3735    0.7182   45.4639 C.3     1  ZINC000642096826    0.1200
      4 N4          3.5529    1.4550   46.7173 N.am    1  ZINC000642096826   -0.6200
      5 C5          4.5937    2.4808   46.8215 C.3     1  ZINC000642096826    0.1100
      6 C6          5.7310    1.9655   47.7056 C.3     1  ZINC000642096826   -0.1400
      7 C7          6.3242    0.6983   47.0867 C.3     1  ZINC000642096826   -0.1500
      8 C8          2.7604    1.1893   47.7746 C.2     1  ZINC000642096826    0.5200
      9 O9          1.8998    0.3391   47.6888 O.2     1  ZINC000642096826   -0.5200
     10 C10         2.9438    1.9486   49.0634 C.3     1  ZINC000642096826    0.0400
     11 N11         1.9370    1.5086   50.0384 N.3     1  ZINC000642096826   -0.5200
     12 C12         2.4943    0.5033   50.9532 C.3     1  ZINC000642096826    0.0100
     13 C13         1.3898    2.6512   50.7821 C.3     1  ZINC000642096826    0.0900
     14 C14        -0.1011    2.4877   50.9284 C.ar    1  ZINC000642096826   -0.0500
     15 C15        -0.8648    2.1240   49.8335 C.ar    1  ZINC000642096826   -0.1000
     16 C16        -2.2303    1.9732   49.9604 C.ar    1  ZINC000642096826   -0.0600
     17 C17        -2.8409    2.1878   51.1971 C.ar    1  ZINC000642096826   -0.1400
     18 C18        -4.3036    2.0275   51.3405 C.2     1  ZINC000642096826    0.5600
     19 O19        -5.0125    3.0063   51.4709 O.2     1  ZINC000642096826   -0.5300
     20 N20        -4.8511    0.7960   51.3266 N.am    1  ZINC000642096826   -0.7000
     21 C21        -6.3004    0.6370   51.4705 C.3     1  ZINC000642096826    0.0800
     22 C22        -6.8023   -0.5448   52.3025 C.3     1  ZINC000642096826   -0.1900
     23 C23        -6.9034    0.8781   52.8558 C.3     1  ZINC000642096826   -0.1900
     24 C24        -2.0647    2.5541   52.2977 C.ar    1  ZINC000642096826   -0.0900
     25 C25        -0.6996    2.6965   52.1583 C.ar    1  ZINC000642096826   -0.1200
     26 H26         3.6548    0.4924   42.7619 H       1  ZINC000642096826    0.0600
     27 H27         1.9777    0.0952   43.2069 H       1  ZINC000642096826    0.0600
     28 H28         2.3281    1.5837   42.2960 H       1  ZINC000642096826    0.0600
     29 H29         3.5765    2.4805   44.2417 H       1  ZINC000642096826    0.0600
     30 H30         1.8994    2.0834   44.6866 H       1  ZINC000642096826    0.0600
     31 H31         2.6509   -0.0839   45.6141 H       1  ZINC000642096826    0.0800
     32 H32         4.3279    0.2938   45.1521 H       1  ZINC000642096826    0.0800
     33 H33         4.9802    2.7084   45.8280 H       1  ZINC000642096826    0.0800
     34 H34         4.1711    3.3837   47.2624 H       1  ZINC000642096826    0.0800
     35 H35         6.5053    2.7287   47.7830 H       1  ZINC000642096826    0.0700
     36 H36         5.3445    1.7380   48.6991 H       1  ZINC000642096826    0.0700
     37 H37         7.1344    0.3312   47.7167 H       1  ZINC000642096826    0.0600
     38 H38         5.5498   -0.0650   47.0093 H       1  ZINC000642096826    0.0600
     39 H39         6.7107    0.9257   46.0933 H       1  ZINC000642096826    0.0600
     40 H40         3.9411    1.7569   49.4592 H       1  ZINC000642096826    0.0600
     41 H41         2.8261    3.0159   48.8761 H       1  ZINC000642096826    0.1000
     42 H42         3.3393    0.9313   51.4924 H       1  ZINC000642096826    0.0200
     43 H43         1.7280    0.1948   51.6644 H       1  ZINC000642096826    0.0700
     44 H44         2.8288   -0.3624   50.3816 H       1  ZINC000642096826    0.0900
     45 H45         1.8491    2.6955   51.7696 H       1  ZINC000642096826    0.0500
     46 H46         1.6029    3.5728   50.2405 H       1  ZINC000642096826    0.0900
     47 H47        -0.3911    1.9583   48.8772 H       1  ZINC000642096826    0.1300
     48 H48        -2.8254    1.6900   49.1048 H       1  ZINC000642096826    0.1400
     49 H49        -4.2856    0.0150   51.2213 H       1  ZINC000642096826    0.4000
     50 H50        -6.8938    0.9318   50.6051 H       1  ZINC000642096826    0.1400
     51 H51        -7.7261   -1.0280   51.9844 H       1  ZINC000642096826    0.1000
     52 H52        -6.0542   -1.2041   52.7428 H       1  ZINC000642096826    0.1000
     53 H53        -6.2218    1.1548   53.6603 H       1  ZINC000642096826    0.1000
     54 H54        -7.8938    1.3310   52.9018 H       1  ZINC000642096826    0.1100
     55 H55        -2.5312    2.7219   53.2572 H       1  ZINC000642096826    0.1200
     56 H56        -0.0977    2.9795   53.0092 H       1  ZINC000642096826    0.1300
@<TRIPOS>BOND
     1     1     2    1
     2     1    26    1
     3     1    27    1
     4     1    28    1
     5     2     3    1
     6     2    29    1
     7     2    30    1
     8     3     4    1
     9     3    31    1
    10     3    32    1
    11     4     5    1
    12     4     8   am
    13     5     6    1
    14     5    33    1
    15     5    34    1
    16     6     7    1
    17     6    35    1
    18     6    36    1
    19     7    37    1
    20     7    38    1
    21     7    39    1
    22     8     9    2
    23     8    10    1
    24    10    11    1
    25    10    40    1
    26    10    41    1
    27    11    12    1
    28    11    13    1
    29    12    42    1
    30    12    43    1
    31    12    44    1
    32    13    14    1
    33    13    45    1
    34    13    46    1
    35    14    25   ar
    36    14    15   ar
    37    15    16   ar
    38    15    47    1
    39    16    17   ar
    40    16    48    1
    41    17    18    1
    42    17    24   ar
    43    18    19    2
    44    18    20   am
    45    20    21    1
    46    20    49    1
    47    21    23    1
    48    21    22    1
    49    21    50    1
    50    22    23    1
    51    22    51    1
    52    22    52    1
    53    23    53    1
    54    23    54    1
    55    24    25   ar
    56    24    55    1
    57    25    56    1
@<TRIPOS>SUBSTRUCTURE
     1 ZINC000642096826        1 TEMP              0 ****  ****    0 ROOT


##########                                Name:    ZINC000479580180
##########                DOCK_Rotatable_Bonds:                   5
##########                         Heavy_Atoms:                  30
##########                    Molecular_Weight:             404.444
##########                DOCK_Rotatable_Bonds:                   5
##########                       Formal_Charge:           0.0299995
##########                     HBond_Acceptors:                   7
##########                        HBond_Donors:                   1
##########                         Heavy_Atoms:                  30
##########                          Grid_Score:          -32.155373
##########                     Grid_vdw_energy:          -31.214674
##########                      Grid_es_energy:           -0.940699
##########           Internal_energy_repulsive:           23.813845

@<TRIPOS>MOLECULE
ZINC000479580180
 51 55 1 0 0
SMALL
USER_CHARGES


@<TRIPOS>ATOM
      1 O1         -5.1925    4.1557   52.3319 O.2     1  ZINC000479580180   -0.5200
      2 C2         -4.8528    3.2015   51.6647 C.2     1  ZINC000479580180    0.5200
      3 C3         -5.8274    2.5672   50.7060 C.3     1  ZINC000479580180   -0.0700
      4 C4         -6.4325    1.3422   51.3419 C.2     1  ZINC000479580180   -0.1600
      5 C5         -5.8746    0.1282   51.4405 C.2     1  ZINC000479580180    0.0300
      6 O6         -6.7103   -0.7161   52.0709 O.3     1  ZINC000479580180   -0.1900
      7 C7         -7.8550   -0.0924   52.4143 C.ar    1  ZINC000479580180    0.0800
      8 C8         -9.0102   -0.5055   53.0654 C.ar    1  ZINC000479580180   -0.1400
      9 C9        -10.0381    0.3924   53.2751 C.ar    1  ZINC000479580180    0.1300
     10 F10       -11.1606   -0.0118   53.9092 F       1  ZINC000479580180   -0.1300
     11 C11        -9.9291    1.7073   52.8408 C.ar    1  ZINC000479580180   -0.1600
     12 C12        -8.7995    2.1319   52.1975 C.ar    1  ZINC000479580180   -0.0400
     13 C13        -7.7493    1.2410   51.9834 C.ar    1  ZINC000479580180   -0.1200
     14 N14        -3.6022    2.7117   51.7766 N.am    1  ZINC000479580180   -0.6200
     15 C15        -3.1725    1.5639   50.9664 C.3     1  ZINC000479580180    0.1100
     16 C16        -1.8894    1.9407   50.2192 C.3     1  ZINC000479580180   -0.1300
     17 C17        -0.8428    2.4278   51.2240 C.3     1  ZINC000479580180   -0.0100
     18 C18         0.4324    2.7671   50.4961 C.2     1  ZINC000479580180    0.3000
     19 N19         0.8751    2.1824   49.4146 N.2     1  ZINC000479580180   -0.5300
     20 C20         2.0363    2.7373   49.0422 C.2     1  ZINC000479580180    0.2700
     21 C21         2.8442    2.3429   47.8613 C.ar    1  ZINC000479580180   -0.0200
     22 C22         4.0416    2.9986   47.5829 C.ar    1  ZINC000479580180   -0.0800
     23 C23         4.7892    2.6275   46.4837 C.ar    1  ZINC000479580180   -0.1300
     24 C24         4.3514    1.6071   45.6588 C.ar    1  ZINC000479580180   -0.1000
     25 C25         3.1633    0.9529   45.9306 C.ar    1  ZINC000479580180   -0.1200
     26 C26         2.4107    1.3119   47.0304 C.ar    1  ZINC000479580180   -0.0800
     27 N27         2.3413    3.6897   49.8960 N.2     1  ZINC000479580180   -0.3000
     28 N28         1.3071    3.7275   50.8452 N.pl3   1  ZINC000479580180   -0.4800
     29 C29        -1.3656    3.6727   51.9444 C.3     1  ZINC000479580180   -0.1400
     30 C30        -2.6408    3.3193   52.7068 C.3     1  ZINC000479580180    0.1200
     31 H31        -6.6168    3.2796   50.4660 H       1  ZINC000479580180    0.1100
     32 H32        -5.3053    2.2822   49.7926 H       1  ZINC000479580180    0.1100
     33 H33        -4.8956   -0.1344   51.0676 H       1  ZINC000479580180    0.2100
     34 H34        -9.1042   -1.5259   53.4065 H       1  ZINC000479580180    0.1500
     35 H35       -10.7413    2.3983   53.0118 H       1  ZINC000479580180    0.1400
     36 H36        -8.7194    3.1550   51.8610 H       1  ZINC000479580180    0.1300
     37 H37        -2.9798    0.7099   51.6158 H       1  ZINC000479580180    0.0800
     38 H38        -3.9525    1.3109   50.2485 H       1  ZINC000479580180    0.0900
     39 H39        -1.5069    1.0679   49.6899 H       1  ZINC000479580180    0.0900
     40 H40        -2.1045    2.7348   49.5042 H       1  ZINC000479580180    0.0700
     41 H41        -0.6465    1.6419   51.9535 H       1  ZINC000479580180    0.1200
     42 H42         4.3840    3.7959   48.2259 H       1  ZINC000479580180    0.1400
     43 H43         5.7175    3.1350   46.2669 H       1  ZINC000479580180    0.1300
     44 H44         4.9391    1.3203   44.7993 H       1  ZINC000479580180    0.1300
     45 H45         2.8259    0.1571   45.2831 H       1  ZINC000479580180    0.1300
     46 H46         1.4834    0.8003   47.2418 H       1  ZINC000479580180    0.1300
     47 H47         1.2397    4.3249   51.6065 H       1  ZINC000479580180    0.4400
     48 H48        -0.6103    4.0327   52.6431 H       1  ZINC000479580180    0.0900
     49 H49        -1.5856    4.4506   51.2133 H       1  ZINC000479580180    0.0700
     50 H50        -3.0702    4.2231   53.1394 H       1  ZINC000479580180    0.1000
     51 H51        -2.4078    2.6077   53.4989 H       1  ZINC000479580180    0.0800
@<TRIPOS>BOND
     1     1     2    2
     2     2     3    1
     3     2    14   am
     4     3     4    1
     5     3    31    1
     6     3    32    1
     7     4    13    1
     8     4     5    2
     9     5     6    1
    10     5    33    1
    11     6     7    1
    12     7    13   ar
    13     7     8   ar
    14     8     9   ar
    15     8    34    1
    16     9    10    1
    17     9    11   ar
    18    11    12   ar
    19    11    35    1
    20    12    13   ar
    21    12    36    1
    22    14    30    1
    23    14    15    1
    24    15    16    1
    25    15    37    1
    26    15    38    1
    27    16    17    1
    28    16    39    1
    29    16    40    1
    30    17    18    1
    31    17    29    1
    32    17    41    1
    33    18    28    1
    34    18    19    2
    35    19    20    1
    36    20    21    1
    37    20    27    2
    38    21    26   ar
    39    21    22   ar
    40    22    23   ar
    41    22    42    1
    42    23    24   ar
    43    23    43    1
    44    24    25   ar
    45    24    44    1
    46    25    26   ar
    47    25    45    1
    48    26    46    1
    49    27    28    1
    50    28    47    1
    51    29    30    1
    52    29    48    1
    53    29    49    1
    54    30    50    1
    55    30    51    1
@<TRIPOS>SUBSTRUCTURE
     1 ZINC000479580180        1 TEMP              0 ****  ****    0 ROOT


##########                                Name:    ZINC000822206030
##########                DOCK_Rotatable_Bonds:                   7
##########                         Heavy_Atoms:                  29
##########                    Molecular_Weight:             391.448
##########                DOCK_Rotatable_Bonds:                   7
##########                       Formal_Charge:         -0.00999995
##########                     HBond_Acceptors:                   7
##########                        HBond_Donors:                   1
##########                         Heavy_Atoms:                  29
##########                          Grid_Score:          -32.138996
##########                     Grid_vdw_energy:          -31.513947
##########                      Grid_es_energy:           -0.625051
##########           Internal_energy_repulsive:           29.662275

@<TRIPOS>MOLECULE
ZINC000822206030
 51 55 1 0 0
SMALL
USER_CHARGES


@<TRIPOS>ATOM
      1 C1         -2.7987    2.0693   51.0826 C.3     1  ZINC000822206030   -0.1300
      2 C2         -3.1608    2.7189   52.3933 C.ar    1  ZINC000822206030   -0.0400
      3 C3         -2.1738    3.2664   53.1890 C.ar    1  ZINC000822206030   -0.1500
      4 C4         -2.5059    3.8630   54.3939 C.ar    1  ZINC000822206030    0.1100
      5 F5         -1.5389    4.3977   55.1711 F       1  ZINC000822206030   -0.1400
      6 C6         -3.8279    3.9127   54.8028 C.ar    1  ZINC000822206030   -0.1500
      7 C7         -4.8181    3.3662   54.0098 C.ar    1  ZINC000822206030   -0.0800
      8 C8         -4.4878    2.7724   52.7991 C.ar    1  ZINC000822206030    0.1100
      9 N9         -5.4901    2.2182   51.9935 N.am    1  ZINC000822206030   -0.5600
     10 C10        -5.8013    0.7898   52.0900 C.3     1  ZINC000822206030    0.1500
     11 C11        -7.2319    0.6161   52.5306 C.ar    1  ZINC000822206030   -0.0900
     12 C12        -7.9165   -0.5417   52.2080 C.ar    1  ZINC000822206030   -0.1000
     13 C13        -9.2268   -0.7061   52.6095 C.ar    1  ZINC000822206030   -0.0800
     14 C14        -9.8597    0.2965   53.3407 C.ar    1  ZINC000822206030   -0.0100
     15 C15       -11.2688    0.1249   53.7756 C.2     1  ZINC000822206030    0.2200
     16 N16       -12.0411   -0.9188   53.5492 N.2     1  ZINC000822206030   -0.2900
     17 N17       -13.1887   -0.6843   54.0865 N.pl3   1  ZINC000822206030   -0.2300
     18 N18       -13.1680    0.4749   54.6460 N.2     1  ZINC000822206030   -0.0500
     19 N19       -12.0013    0.9992   54.4799 N.2     1  ZINC000822206030   -0.2700
     20 C20        -9.1656    1.4605   53.6628 C.ar    1  ZINC000822206030   -0.0800
     21 C21        -7.8539    1.6125   53.2609 C.ar    1  ZINC000822206030   -0.0900
     22 C22        -6.1685    2.9988   51.1292 C.2     1  ZINC000822206030    0.5500
     23 O23        -7.0356    2.5185   50.4303 O.2     1  ZINC000822206030   -0.5000
     24 C24        -5.8497    4.4684   51.0313 C.3     1  ZINC000822206030   -0.1900
     25 H25        -4.8971    4.7124   50.5610 H       1  ZINC000822206030    0.1200
     26 C26        -6.3279    5.3724   52.1692 C.3     1  ZINC000822206030   -0.1400
     27 C27        -7.0170    5.4309   50.8036 C.3     1  ZINC000822206030   -0.0900
     28 H28        -6.8324    6.3084   50.1839 H       1  ZINC000822206030    0.1100
     29 C29        -8.4191    4.8283   50.6933 C.3     1  ZINC000822206030   -0.1100
     30 C30        -9.5859    5.7911   50.4647 C.3     1  ZINC000822206030   -0.2000
     31 C31        -9.1073    4.8857   49.3281 C.3     1  ZINC000822206030   -0.1200
     32 H32        -2.8212    2.8158   50.2886 H       1  ZINC000822206030    0.0900
     33 H33        -1.7978    1.6433   51.1524 H       1  ZINC000822206030    0.0700
     34 H34        -3.5152    1.2790   50.8586 H       1  ZINC000822206030    0.0700
     35 H35        -1.1422    3.2290   52.8716 H       1  ZINC000822206030    0.1400
     36 H36        -4.0849    4.3787   55.7426 H       1  ZINC000822206030    0.1400
     37 H37        -5.8490    3.4048   54.3292 H       1  ZINC000822206030    0.1400
     38 H38        -5.6616    0.3210   51.1159 H       1  ZINC000822206030    0.1000
     39 H39        -5.1377    0.3217   52.8170 H       1  ZINC000822206030    0.0900
     40 H40        -7.4250   -1.3183   51.6408 H       1  ZINC000822206030    0.1300
     41 H41        -9.7606   -1.6103   52.3569 H       1  ZINC000822206030    0.1400
     42 H42       -13.9490   -1.2865   54.0713 H       1  ZINC000822206030    0.4800
     43 H43        -9.6517    2.2411   54.2293 H       1  ZINC000822206030    0.1300
     44 H44        -7.3148    2.5145   53.5102 H       1  ZINC000822206030    0.1400
     45 H45        -6.8732    4.9042   52.9886 H       1  ZINC000822206030    0.1000
     46 H46        -5.6901    6.2115   52.4473 H       1  ZINC000822206030    0.1000
     47 H47        -8.6038    3.9512   51.3136 H       1  ZINC000822206030    0.1000
     48 H48       -10.5387    5.5477   50.9348 H       1  ZINC000822206030    0.0900
     49 H49        -9.3548    6.8538   50.3930 H       1  ZINC000822206030    0.0900
     50 H50        -8.5613    5.3529   48.5085 H       1  ZINC000822206030    0.0800
     51 H51        -9.7453    4.0467   49.0504 H       1  ZINC000822206030    0.0900
@<TRIPOS>BOND
     1     1     2    1
     2     1    32    1
     3     1    33    1
     4     1    34    1
     5     2     8   ar
     6     2     3   ar
     7     3     4   ar
     8     3    35    1
     9     4     5    1
    10     4     6   ar
    11     6     7   ar
    12     6    36    1
    13     7     8   ar
    14     7    37    1
    15     8     9    1
    16     9    10    1
    17     9    22   am
    18    10    11    1
    19    10    38    1
    20    10    39    1
    21    11    21   ar
    22    11    12   ar
    23    12    13   ar
    24    12    40    1
    25    13    14   ar
    26    13    41    1
    27    14    15    1
    28    14    20   ar
    29    15    19    1
    30    15    16    2
    31    16    17    1
    32    17    18    1
    33    17    42    1
    34    18    19    2
    35    20    21   ar
    36    20    43    1
    37    21    44    1
    38    22    23    2
    39    22    24    1
    40    24    25    1
    41    24    27    1
    42    24    26    1
    43    26    27    1
    44    26    45    1
    45    26    46    1
    46    27    28    1
    47    27    29    1
    48    29    31    1
    49    29    30    1
    50    29    47    1
    51    30    31    1
    52    30    48    1
    53    30    49    1
    54    31    50    1
    55    31    51    1
@<TRIPOS>SUBSTRUCTURE
     1 ZINC000822206030        1 TEMP              0 ****  ****    0 ROOT


##########                                Name:    ZINC000919225759
##########                DOCK_Rotatable_Bonds:                   4
##########                         Heavy_Atoms:                  27
##########                    Molecular_Weight:             375.295
##########                DOCK_Rotatable_Bonds:                   4
##########                       Formal_Charge:                0.04
##########                     HBond_Acceptors:                  11
##########                        HBond_Donors:                   0
##########                         Heavy_Atoms:                  27
##########                          Grid_Score:          -32.129154
##########                     Grid_vdw_energy:          -31.517683
##########                      Grid_es_energy:           -0.611471
##########           Internal_energy_repulsive:           12.534803

@<TRIPOS>MOLECULE
ZINC000919225759
 40 41 1 0 0
SMALL
USER_CHARGES


@<TRIPOS>ATOM
      1 C1         -3.5135    3.9104   54.2626 C.3     1  ZINC000919225759   -0.1500
      2 C2         -2.8185    3.3790   53.0354 C.ar    1  ZINC000919225759    0.0900
      3 C3         -3.5454    2.6898   52.0629 C.ar    1  ZINC000919225759   -0.1200
      4 C4         -4.9976    2.4788   52.2328 C.2     1  ZINC000919225759    0.5200
      5 O5         -5.7750    3.3792   51.9876 O.2     1  ZINC000919225759   -0.4700
      6 O6         -5.4597    1.2875   52.6598 O.3     1  ZINC000919225759   -0.3400
      7 C7         -6.7404    0.8502   52.1337 C.3     1  ZINC000919225759    0.1400
      8 H8         -6.9882    1.4353   51.2479 H       1  ZINC000919225759    0.1100
      9 C9         -6.6593   -0.6312   51.7600 C.3     1  ZINC000919225759   -0.1700
     10 C10        -7.8069    1.0468   53.1801 C.ar    1  ZINC000919225759   -0.1000
     11 C11        -7.5997    1.9335   54.2199 C.ar    1  ZINC000919225759   -0.0400
     12 C12        -8.5782    2.1137   55.1799 C.ar    1  ZINC000919225759   -0.1100
     13 C13        -9.7636    1.4077   55.0996 C.ar    1  ZINC000919225759   -0.0500
     14 C14        -9.9712    0.5215   54.0589 C.ar    1  ZINC000919225759   -0.0400
     15 N15       -11.2406   -0.2350   53.9731 N.pl3   1  ZINC000919225759    0.0300
     16 O16       -12.1022   -0.0767   54.8193 O.2     1  ZINC000919225759   -0.1500
     17 O17       -11.4235   -1.0157   53.0563 O.2     1  ZINC000919225759   -0.1500
     18 C18        -8.9948    0.3444   53.0968 C.ar    1  ZINC000919225759   -0.0400
     19 C19        -2.8936    2.2012   50.9287 C.ar    1  ZINC000919225759    0.0500
     20 C20        -1.5376    2.4022   50.7763 C.ar    1  ZINC000919225759   -0.0600
     21 N21        -0.8451    1.8855   49.5744 N.pl3   1  ZINC000919225759    0.0300
     22 O22        -1.4726    1.2835   48.7216 O.2     1  ZINC000919225759   -0.1300
     23 O23         0.3523    2.0621   49.4384 O.2     1  ZINC000919225759   -0.1300
     24 C24        -0.8232    3.0862   51.7441 C.ar    1  ZINC000919225759    0.0400
     25 C25        -1.4636    3.5775   52.8677 C.ar    1  ZINC000919225759   -0.0500
     26 N26        -0.6914    4.3085   53.8974 N.pl3   1  ZINC000919225759    0.0200
     27 O27         0.4381    3.9507   54.1798 O.2     1  ZINC000919225759   -0.1300
     28 O28        -1.1855    5.2678   54.4624 O.2     1  ZINC000919225759   -0.1200
     29 H29        -3.9699    4.8733   54.0332 H       1  ZINC000919225759    0.1200
     30 H30        -4.2857    3.2077   54.5757 H       1  ZINC000919225759    0.1200
     31 H31        -2.7876    4.0345   55.0661 H       1  ZINC000919225759    0.0900
     32 H32        -6.4115   -1.2162   52.6456 H       1  ZINC000919225759    0.0700
     33 H33        -7.6208   -0.9595   51.3650 H       1  ZINC000919225759    0.0900
     34 H34        -5.8879   -0.7733   51.0031 H       1  ZINC000919225759    0.0700
     35 H35        -6.6734    2.4851   54.2826 H       1  ZINC000919225759    0.1500
     36 H36        -8.4160    2.8061   55.9928 H       1  ZINC000919225759    0.1500
     37 H37       -10.5277    1.5481   55.8499 H       1  ZINC000919225759    0.1600
     38 H38        -9.1570   -0.3479   52.2838 H       1  ZINC000919225759    0.1600
     39 H39        -3.4498    1.6669   50.1727 H       1  ZINC000919225759    0.1900
     40 H40         0.2385    3.2406   51.6199 H       1  ZINC000919225759    0.1900
@<TRIPOS>BOND
     1     1     2    1
     2     1    29    1
     3     1    30    1
     4     1    31    1
     5     2    25   ar
     6     2     3   ar
     7     3     4    1
     8     3    19   ar
     9     4     5    2
    10     4     6    1
    11     6     7    1
    12     7     8    1
    13     7     9    1
    14     7    10    1
    15     9    32    1
    16     9    33    1
    17     9    34    1
    18    10    18   ar
    19    10    11   ar
    20    11    12   ar
    21    11    35    1
    22    12    13   ar
    23    12    36    1
    24    13    14   ar
    25    13    37    1
    26    14    15    1
    27    14    18   ar
    28    15    16    2
    29    15    17    2
    30    18    38    1
    31    19    20   ar
    32    19    39    1
    33    20    21    1
    34    20    24   ar
    35    21    22    2
    36    21    23    2
    37    24    25   ar
    38    24    40    1
    39    25    26    1
    40    26    27    2
    41    26    28    2
@<TRIPOS>SUBSTRUCTURE
     1 ZINC000919225759        1 TEMP              0 ****  ****    0 ROOT


##########                                Name:    ZINC000603906271
##########                DOCK_Rotatable_Bonds:                   8
##########                         Heavy_Atoms:                  29
##########                    Molecular_Weight:             391.473
##########                DOCK_Rotatable_Bonds:                   8
##########                       Formal_Charge:           0.0499998
##########                     HBond_Acceptors:                   7
##########                        HBond_Donors:                   3
##########                         Heavy_Atoms:                  29
##########                          Grid_Score:          -32.112232
##########                     Grid_vdw_energy:          -30.033367
##########                      Grid_es_energy:           -2.078866
##########           Internal_energy_repulsive:           22.552586

@<TRIPOS>MOLECULE
ZINC000603906271
 54 56 1 0 0
SMALL
USER_CHARGES


@<TRIPOS>ATOM
      1 C1         -6.2874    0.3529   51.4512 C.3     1  ZINC000603906271   -0.1600
      2 C2         -6.3895    1.8312   51.8322 C.3     1  ZINC000603906271    0.1300
      3 H3         -7.2110    2.2919   51.2835 H       1  ZINC000603906271    0.1200
      4 N4         -6.6369    1.9486   53.2714 N.am    1  ZINC000603906271   -0.7100
      5 C5         -7.8759    1.7445   53.7610 C.2     1  ZINC000603906271    0.5700
      6 O6         -8.7884    1.4647   53.0083 O.2     1  ZINC000603906271   -0.5300
      7 C7         -8.1253    1.8613   55.2136 C.ar    1  ZINC000603906271   -0.1400
      8 C8         -9.3355    1.4239   55.7542 C.ar    1  ZINC000603906271   -0.0800
      9 C9         -9.5618    1.5353   57.1105 C.ar    1  ZINC000603906271   -0.1200
     10 C10        -8.5925    2.0795   57.9344 C.ar    1  ZINC000603906271   -0.0400
     11 C11        -8.8468    2.1985   59.4149 C.3     1  ZINC000603906271   -0.0400
     12 C12        -7.9730    3.3126   59.9946 C.3     1  ZINC000603906271   -0.1400
     13 C13       -10.3212    2.5301   59.6540 C.3     1  ZINC000603906271   -0.1500
     14 C14        -8.5045    0.8737   60.0994 C.3     1  ZINC000603906271   -0.1400
     15 C15        -7.3905    2.5146   57.4048 C.ar    1  ZINC000603906271   -0.1300
     16 C16        -7.1495    2.4040   56.0510 C.ar    1  ZINC000603906271   -0.0500
     17 C17        -5.0998    2.5295   51.4856 C.2     1  ZINC000603906271    0.5100
     18 O18        -5.0383    3.2363   50.5018 O.2     1  ZINC000603906271   -0.5100
     19 N19        -4.0148    2.3686   52.2685 N.am    1  ZINC000603906271   -0.6700
     20 C20        -2.8172    3.0170   51.9466 C.ar    1  ZINC000603906271    0.1300
     21 C21        -2.6210    4.3403   52.3218 C.ar    1  ZINC000603906271   -0.1200
     22 C22        -1.4394    4.9840   52.0056 C.ar    1  ZINC000603906271   -0.1000
     23 C23        -0.4482    4.3162   51.3150 C.ar    1  ZINC000603906271   -0.0900
     24 C24        -0.6368    2.9887   50.9341 C.ar    1  ZINC000603906271    0.0000
     25 C25         0.4277    2.2694   50.1911 C.2     1  ZINC000603906271    0.2700
     26 N26         0.3352    1.8263   48.9565 N.2     1  ZINC000603906271   -0.3000
     27 N27         1.5620    1.2131   48.6545 N.pl3   1  ZINC000603906271   -0.4800
     28 C28         2.3291    1.3308   49.7533 C.2     1  ZINC000603906271    0.2700
     29 N29         1.6443    1.9690   50.6652 N.2     1  ZINC000603906271   -0.5300
     30 C30        -1.8236    2.3374   51.2579 C.ar    1  ZINC000603906271   -0.0800
     31 H31        -5.4660   -0.1079   51.9998 H       1  ZINC000603906271    0.0700
     32 H32        -7.2203   -0.1522   51.7018 H       1  ZINC000603906271    0.0800
     33 H33        -6.1033    0.2656   50.3804 H       1  ZINC000603906271    0.0700
     34 H34        -5.9090    2.1731   53.8719 H       1  ZINC000603906271    0.4100
     35 H35       -10.0933    0.9996   55.1122 H       1  ZINC000603906271    0.1300
     36 H36       -10.4978    1.1973   57.5303 H       1  ZINC000603906271    0.1300
     37 H37        -8.2169    4.2565   59.5070 H       1  ZINC000603906271    0.0600
     38 H38        -8.1570    3.3987   61.0656 H       1  ZINC000603906271    0.0600
     39 H39        -6.9227    3.0764   59.8243 H       1  ZINC000603906271    0.0600
     40 H40       -10.9438    1.7364   59.2411 H       1  ZINC000603906271    0.0600
     41 H41       -10.5052    2.6162   60.7250 H       1  ZINC000603906271    0.0600
     42 H42       -10.5650    3.4740   59.1665 H       1  ZINC000603906271    0.0600
     43 H43        -7.4542    0.6375   59.9289 H       1  ZINC000603906271    0.0600
     44 H44        -8.6886    0.9597   61.1702 H       1  ZINC000603906271    0.0600
     45 H45        -9.1271    0.0799   59.6864 H       1  ZINC000603906271    0.0600
     46 H46        -6.6379    2.9381   58.0533 H       1  ZINC000603906271    0.1400
     47 H47        -6.2107    2.7435   55.6389 H       1  ZINC000603906271    0.1400
     48 H48        -4.0639    1.8033   53.0553 H       1  ZINC000603906271    0.4200
     49 H49        -3.3937    4.8673   52.8617 H       1  ZINC000603906271    0.1300
     50 H50        -1.2915    6.0127   52.2994 H       1  ZINC000603906271    0.1400
     51 H51         0.4736    4.8225   51.0692 H       1  ZINC000603906271    0.1400
     52 H52         1.8077    0.7880   47.8180 H       1  ZINC000603906271    0.4400
     53 H53         3.3394    0.9647   49.8617 H       1  ZINC000603906271    0.2300
     54 H54        -1.9743    1.3089   50.9651 H       1  ZINC000603906271    0.1500
@<TRIPOS>BOND
     1     1     2    1
     2     1    31    1
     3     1    32    1
     4     1    33    1
     5     2     3    1
     6     2     4    1
     7     2    17    1
     8     4     5   am
     9     4    34    1
    10     5     6    2
    11     5     7    1
    12     7    16   ar
    13     7     8   ar
    14     8     9   ar
    15     8    35    1
    16     9    10   ar
    17     9    36    1
    18    10    11    1
    19    10    15   ar
    20    11    12    1
    21    11    13    1
    22    11    14    1
    23    12    37    1
    24    12    38    1
    25    12    39    1
    26    13    40    1
    27    13    41    1
    28    13    42    1
    29    14    43    1
    30    14    44    1
    31    14    45    1
    32    15    16   ar
    33    15    46    1
    34    16    47    1
    35    17    18    2
    36    17    19   am
    37    19    20    1
    38    19    48    1
    39    20    30   ar
    40    20    21   ar
    41    21    22   ar
    42    21    49    1
    43    22    23   ar
    44    22    50    1
    45    23    24   ar
    46    23    51    1
    47    24    25    1
    48    24    30   ar
    49    25    29    1
    50    25    26    2
    51    26    27    1
    52    27    28    1
    53    27    52    1
    54    28    29    2
    55    28    53    1
    56    30    54    1
@<TRIPOS>SUBSTRUCTURE
     1 ZINC000603906271        1 TEMP              0 ****  ****    0 ROOT


##########                                Name:    ZINC000470948647
##########                DOCK_Rotatable_Bonds:                   6
##########                         Heavy_Atoms:                  29
##########                    Molecular_Weight:             412.556
##########                DOCK_Rotatable_Bonds:                   6
##########                       Formal_Charge:           0.0100001
##########                     HBond_Acceptors:                   7
##########                        HBond_Donors:                   1
##########                         Heavy_Atoms:                  29
##########                          Grid_Score:          -32.110950
##########                     Grid_vdw_energy:          -32.238274
##########                      Grid_es_energy:            0.127325
##########           Internal_energy_repulsive:           17.298271

@<TRIPOS>MOLECULE
ZINC000470948647
 57 60 1 0 0
SMALL
USER_CHARGES


@<TRIPOS>ATOM
      1 C1        -10.4212   -1.0563   52.9819 C.3     1  ZINC000470948647   -0.1100
      2 C2         -9.2825   -0.0920   53.1928 C.ar    1  ZINC000470948647   -0.1000
      3 C3         -9.3827    0.8935   54.1573 C.ar    1  ZINC000470948647   -0.1100
      4 C4         -8.3407    1.7790   54.3531 C.ar    1  ZINC000470948647   -0.1100
      5 C5         -7.1916    1.6783   53.5802 C.ar    1  ZINC000470948647    0.1400
      6 N6         -6.1341    2.5734   53.7763 N.am    1  ZINC000470948647   -0.6700
      7 C7         -6.1184    3.7515   53.1220 C.2     1  ZINC000470948647    0.5100
      8 O8         -7.0209    4.0360   52.3632 O.2     1  ZINC000470948647   -0.4800
      9 C9         -4.9795    4.7156   53.3331 C.3     1  ZINC000470948647    0.1200
     10 H10        -5.1957    5.6361   52.7910 H       1  ZINC000470948647    0.1200
     11 C11        -4.8755    5.0394   54.8408 C.3     1  ZINC000470948647   -0.0700
     12 S12        -3.5357    3.8896   55.3663 S.3     1  ZINC000470948647   -0.2500
     13 C13        -2.6563    3.9752   53.7515 C.3     1  ZINC000470948647    0.1600
     14 N14        -3.7632    4.1286   52.7916 N.am    1  ZINC000470948647   -0.6000
     15 C15        -3.6578    3.7546   51.5010 C.2     1  ZINC000470948647    0.6300
     16 O16        -4.5994    3.9023   50.7464 O.2     1  ZINC000470948647   -0.5100
     17 C17        -2.3981    3.1652   51.0034 C.2     1  ZINC000470948647   -0.0100
     18 N18        -1.1780    3.5983   51.2509 N.2     1  ZINC000470948647   -0.2700
     19 N19        -0.3165    2.8506   50.6602 N.pl3   1  ZINC000470948647   -0.2700
     20 C20         1.1353    3.0389   50.7171 C.3     1  ZINC000470948647    0.1500
     21 C21         1.7049    2.2577   51.9028 C.3     1  ZINC000470948647   -0.1300
     22 C22         3.2211    2.4543   51.9621 C.3     1  ZINC000470948647   -0.1200
     23 C23         3.8526    1.9449   50.6650 C.3     1  ZINC000470948647   -0.1300
     24 C24         3.2830    2.7261   49.4792 C.3     1  ZINC000470948647   -0.1200
     25 C25         1.7669    2.5295   49.4199 C.3     1  ZINC000470948647   -0.1300
     26 C26        -0.9414    1.8660   49.9794 C.2     1  ZINC000470948647   -0.0100
     27 C27        -2.2713    2.0247   50.1756 C.2     1  ZINC000470948647   -0.1700
     28 C28        -7.0938    0.6869   52.6123 C.ar    1  ZINC000470948647   -0.1100
     29 C29        -5.8483    0.5738   51.7716 C.3     1  ZINC000470948647   -0.1100
     30 C30        -8.1371   -0.1982   52.4249 C.ar    1  ZINC000470948647   -0.1000
     31 H31       -10.2871   -1.9237   53.6283 H       1  ZINC000470948647    0.0700
     32 H32       -11.3633   -0.5646   53.2244 H       1  ZINC000470948647    0.0700
     33 H33       -10.4367   -1.3781   51.9406 H       1  ZINC000470948647    0.0700
     34 H34       -10.2767    0.9713   54.7582 H       1  ZINC000470948647    0.1200
     35 H35        -8.4199    2.5490   55.1062 H       1  ZINC000470948647    0.1400
     36 H36        -5.4123    2.3460   54.3832 H       1  ZINC000470948647    0.4100
     37 H37        -4.5848    6.0779   54.9991 H       1  ZINC000470948647    0.1200
     38 H38        -5.8096    4.8134   55.3551 H       1  ZINC000470948647    0.1200
     39 H39        -1.9917    4.8386   53.7186 H       1  ZINC000470948647    0.1000
     40 H40        -2.1050    3.0541   53.5621 H       1  ZINC000470948647    0.1400
     41 H41         1.3598    4.0986   50.8386 H       1  ZINC000470948647    0.1100
     42 H42         1.2550    2.6206   52.8269 H       1  ZINC000470948647    0.0800
     43 H43         1.4805    1.1979   51.7812 H       1  ZINC000470948647    0.0800
     44 H44         3.4455    3.5140   52.0837 H       1  ZINC000470948647    0.0700
     45 H45         3.6269    1.8977   52.8069 H       1  ZINC000470948647    0.0800
     46 H46         4.9327    2.0850   50.7072 H       1  ZINC000470948647    0.0700
     47 H47         3.6281    0.8851   50.5433 H       1  ZINC000470948647    0.0700
     48 H48         3.5074    3.7858   49.6009 H       1  ZINC000470948647    0.0700
     49 H49         3.7329    2.3631   48.5552 H       1  ZINC000470948647    0.0700
     50 H50         1.5424    1.4698   49.2983 H       1  ZINC000470948647    0.0700
     51 H51         1.3610    3.0861   48.5751 H       1  ZINC000470948647    0.0700
     52 H52        -0.4681    1.0932   49.3919 H       1  ZINC000470948647    0.1800
     53 H53        -3.0681    1.4138   49.7779 H       1  ZINC000470948647    0.1600
     54 H54        -5.1375   -0.0906   52.2629 H       1  ZINC000470948647    0.0700
     55 H55        -6.1062    0.1698   50.7927 H       1  ZINC000470948647    0.0700
     56 H56        -5.4003    1.5601   51.6513 H       1  ZINC000470948647    0.0600
     57 H57        -8.0615   -0.9694   51.6727 H       1  ZINC000470948647    0.1300
@<TRIPOS>BOND
     1     1     2    1
     2     1    31    1
     3     1    32    1
     4     1    33    1
     5     2    30   ar
     6     2     3   ar
     7     3     4   ar
     8     3    34    1
     9     4     5   ar
    10     4    35    1
    11     5     6    1
    12     5    28   ar
    13     6     7   am
    14     6    36    1
    15     7     8    2
    16     7     9    1
    17     9    10    1
    18     9    14    1
    19     9    11    1
    20    11    12    1
    21    11    37    1
    22    11    38    1
    23    12    13    1
    24    13    14    1
    25    13    39    1
    26    13    40    1
    27    14    15   am
    28    15    16    2
    29    15    17    1
    30    17    27    1
    31    17    18    2
    32    18    19    1
    33    19    20    1
    34    19    26    1
    35    20    25    1
    36    20    21    1
    37    20    41    1
    38    21    22    1
    39    21    42    1
    40    21    43    1
    41    22    23    1
    42    22    44    1
    43    22    45    1
    44    23    24    1
    45    23    46    1
    46    23    47    1
    47    24    25    1
    48    24    48    1
    49    24    49    1
    50    25    50    1
    51    25    51    1
    52    26    27    2
    53    26    52    1
    54    27    53    1
    55    28    29    1
    56    28    30   ar
    57    29    54    1
    58    29    55    1
    59    29    56    1
    60    30    57    1
@<TRIPOS>SUBSTRUCTURE
     1 ZINC000470948647        1 TEMP              0 ****  ****    0 ROOT


##########                                Name:    ZINC000654382142
##########                DOCK_Rotatable_Bonds:                  14
##########                         Heavy_Atoms:                  24
##########                    Molecular_Weight:             379.401
##########                DOCK_Rotatable_Bonds:                  14
##########                       Formal_Charge:          0.00999933
##########                     HBond_Acceptors:                  12
##########                        HBond_Donors:                   2
##########                         Heavy_Atoms:                  24
##########                          Grid_Score:          -32.096535
##########                     Grid_vdw_energy:          -30.498034
##########                      Grid_es_energy:           -1.598500
##########           Internal_energy_repulsive:           14.318322

@<TRIPOS>MOLECULE
ZINC000654382142
 48 47 1 0 0
SMALL
USER_CHARGES


@<TRIPOS>ATOM
      1 C1         -1.1474    5.2560   53.4511 C.3     1  ZINC000654382142    0.0300
      2 O2         -0.7225    5.1506   52.0908 O.3     1  ZINC000654382142   -0.3700
      3 C3          0.6939    5.0505   51.9303 C.3     1  ZINC000654382142    0.0400
      4 C4          1.1247    3.5925   52.1018 C.3     1  ZINC000654382142    0.1400
      5 N5          1.3640    2.9958   50.7854 N.am    1  ZINC000654382142   -0.6100
      6 C6          2.7171    2.9783   50.2242 C.3     1  ZINC000654382142    0.0800
      7 C7          3.3495    1.6052   50.4603 C.3     1  ZINC000654382142    0.0500
      8 H8          2.6724    0.8277   50.1065 H       1  ZINC000654382142    0.1400
      9 O9          3.5920    1.4264   51.8572 O.3     1  ZINC000654382142   -0.5200
     10 C10         4.6727    1.5151   49.6973 C.3     1  ZINC000654382142    0.4200
     11 F11         5.2011    0.2266   49.8306 F       1  ZINC000654382142   -0.1800
     12 F12         4.4502    1.7902   48.3438 F       1  ZINC000654382142   -0.1700
     13 F13         5.5766    2.4462   50.2200 F       1  ZINC000654382142   -0.1800
     14 C14         0.3394    2.4631   50.0907 C.2     1  ZINC000654382142    0.7100
     15 O15         0.5383    1.9666   48.9987 O.2     1  ZINC000654382142   -0.5600
     16 N16        -0.9057    2.4807   50.6063 N.am    1  ZINC000654382142   -0.7500
     17 C17        -2.0198    1.9031   49.8502 C.3     1  ZINC000654382142    0.1400
     18 C18        -3.3427    2.4358   50.4045 C.3     1  ZINC000654382142   -0.1600
     19 C19        -3.8081    1.5448   51.5578 C.3     1  ZINC000654382142    0.1200
     20 N20        -5.1367    1.9740   52.0011 N.am    1  ZINC000654382142   -1.0000
     21 C21        -5.2678    3.0451   52.9920 C.3     1  ZINC000654382142    0.0900
     22 S22        -6.4906    1.2485   51.3822 S.o2    1  ZINC000654382142    2.6100
     23 C23        -6.3149   -0.4991   51.8354 C.3     1  ZINC000654382142   -0.6800
     24 O24        -7.5649    1.8435   52.0972 O.2     1  ZINC000654382142   -0.9500
     25 O25        -6.3654    1.4141   49.9764 O.2     1  ZINC000654382142   -0.9500
     26 H26        -2.2344    5.3278   53.4878 H       1  ZINC000654382142    0.0900
     27 H27        -0.8228    4.3735   54.0025 H       1  ZINC000654382142    0.0400
     28 H28        -0.7090    6.1469   53.9007 H       1  ZINC000654382142    0.0400
     29 H29         0.9722    5.3969   50.9351 H       1  ZINC000654382142    0.0500
     30 H30         1.1890    5.6664   52.6810 H       1  ZINC000654382142    0.0600
     31 H31         2.0407    3.5513   52.6913 H       1  ZINC000654382142    0.0900
     32 H32         0.3378    3.0389   52.6141 H       1  ZINC000654382142    0.1000
     33 H33         2.6690    3.1769   49.1535 H       1  ZINC000654382142    0.1000
     34 H34         3.3216    3.7449   50.7091 H       1  ZINC000654382142    0.1000
     35 H35         2.7897    1.4099   52.3968 H       1  ZINC000654382142    0.3900
     36 H36        -1.0641    2.8756   51.4779 H       1  ZINC000654382142    0.3900
     37 H37        -1.9282    2.1797   48.7999 H       1  ZINC000654382142    0.0700
     38 H38        -1.9978    0.8173   49.9433 H       1  ZINC000654382142    0.0700
     39 H39        -3.2011    3.4542   50.7664 H       1  ZINC000654382142    0.0700
     40 H40        -4.0949    2.4318   49.6158 H       1  ZINC000654382142    0.0800
     41 H41        -3.8544    0.5091   51.2210 H       1  ZINC000654382142    0.0900
     42 H42        -3.1046    1.6261   52.3865 H       1  ZINC000654382142    0.1000
     43 H43        -5.3275    4.0066   52.4820 H       1  ZINC000654382142    0.0600
     44 H44        -6.1726    2.8882   53.5791 H       1  ZINC000654382142    0.0700
     45 H45        -4.4004    3.0374   53.6521 H       1  ZINC000654382142    0.0700
     46 H46        -6.2646   -0.5898   52.9205 H       1  ZINC000654382142    0.1300
     47 H47        -7.1730   -1.0590   51.4634 H       1  ZINC000654382142    0.1300
     48 H48        -5.4015   -0.8987   51.3947 H       1  ZINC000654382142    0.1300
@<TRIPOS>BOND
     1     1     2    1
     2     1    26    1
     3     1    27    1
     4     1    28    1
     5     2     3    1
     6     3     4    1
     7     3    29    1
     8     3    30    1
     9     4     5    1
    10     4    31    1
    11     4    32    1
    12     5     6    1
    13     5    14   am
    14     6     7    1
    15     6    33    1
    16     6    34    1
    17     7     8    1
    18     7     9    1
    19     7    10    1
    20     9    35    1
    21    10    11    1
    22    10    12    1
    23    10    13    1
    24    14    15    2
    25    14    16   am
    26    16    17    1
    27    16    36    1
    28    17    18    1
    29    17    37    1
    30    17    38    1
    31    18    19    1
    32    18    39    1
    33    18    40    1
    34    19    20    1
    35    19    41    1
    36    19    42    1
    37    20    21    1
    38    20    22   am
    39    21    43    1
    40    21    44    1
    41    21    45    1
    42    22    23    1
    43    22    24    2
    44    22    25    2
    45    23    46    1
    46    23    47    1
    47    23    48    1
@<TRIPOS>SUBSTRUCTURE
     1 ZINC000654382142        1 TEMP              0 ****  ****    0 ROOT


##########                                Name:    ZINC000624498741
##########                DOCK_Rotatable_Bonds:                   7
##########                         Heavy_Atoms:                  27
##########                    Molecular_Weight:             379.339
##########                DOCK_Rotatable_Bonds:                   7
##########                       Formal_Charge:           0.0300003
##########                     HBond_Acceptors:                   9
##########                        HBond_Donors:                   0
##########                         Heavy_Atoms:                  27
##########                          Grid_Score:          -32.094604
##########                     Grid_vdw_energy:          -31.283997
##########                      Grid_es_energy:           -0.810607
##########           Internal_energy_repulsive:           11.965322

@<TRIPOS>MOLECULE
ZINC000624498741
 43 45 1 0 0
SMALL
USER_CHARGES


@<TRIPOS>ATOM
      1 C1         -5.2294    3.5150   53.4869 C.3     1  ZINC000624498741   -0.1100
      2 C2         -5.6740    2.2084   52.8816 C.ar    1  ZINC000624498741   -0.0900
      3 C3         -6.9689    1.7738   53.0585 C.ar    1  ZINC000624498741   -0.0400
      4 C4         -7.3802    0.5627   52.4967 C.ar    1  ZINC000624498741   -0.0500
      5 C5         -8.7677    0.0933   52.6835 C.2     1  ZINC000624498741    0.2300
      6 N6         -9.7699    0.7793   53.2058 N.2     1  ZINC000624498741   -0.4700
      7 C7        -10.8274   -0.0462   53.1706 C.2     1  ZINC000624498741    0.1800
      8 C8        -12.2192    0.2699   53.6542 C.3     1  ZINC000624498741   -0.0300
      9 C9        -12.9423    1.1193   52.6071 C.3     1  ZINC000624498741   -0.1300
     10 C10       -13.3785    0.2296   51.4413 C.3     1  ZINC000624498741    0.0900
     11 N11       -13.7207    1.0671   50.2891 N.am    1  ZINC000624498741   -0.5000
     12 C12       -14.2280    2.3103   50.4901 C.2     1  ZINC000624498741    0.1300
     13 C13       -14.5519    3.1023   49.4415 C.2     1  ZINC000624498741   -0.2300
     14 C14       -14.3639    2.6405   48.1312 C.2     1  ZINC000624498741   -0.0200
     15 C15       -13.8538    1.3914   47.9312 C.2     1  ZINC000624498741   -0.2400
     16 C16       -13.5234    0.5973   49.0427 C.2     1  ZINC000624498741    0.5100
     17 O17       -13.0661   -0.5224   48.8781 O.2     1  ZINC000624498741   -0.5500
     18 N18       -10.4342   -1.1679   52.6431 N.2     1  ZINC000624498741   -0.3700
     19 O19        -9.2585   -1.1110   52.3509 O.3     1  ZINC000624498741    0.0900
     20 C20        -6.4756   -0.2028   51.7574 C.ar    1  ZINC000624498741   -0.0200
     21 C21        -5.1820    0.2390   51.5851 C.ar    1  ZINC000624498741   -0.1900
     22 C22        -4.7785    1.4466   52.1410 C.ar    1  ZINC000624498741    0.1300
     23 O23        -3.5028    1.8783   51.9689 O.3     1  ZINC000624498741   -0.3000
     24 C24        -3.2052    2.5512   50.7438 C.3     1  ZINC000624498741    0.6000
     25 F25        -4.3957    2.9738   50.1428 F       1  ZINC000624498741   -0.1600
     26 F26        -2.3956    3.6616   51.0063 F       1  ZINC000624498741   -0.1300
     27 F27        -2.5329    1.6770   49.8830 F       1  ZINC000624498741   -0.1600
     28 H28        -5.4091    4.3235   52.7783 H       1  ZINC000624498741    0.0800
     29 H29        -5.7920    3.7019   54.4016 H       1  ZINC000624498741    0.0800
     30 H30        -4.1655    3.4648   53.7186 H       1  ZINC000624498741    0.0800
     31 H31        -7.6653    2.3684   53.6312 H       1  ZINC000624498741    0.1500
     32 H32       -12.7687   -0.6582   53.8116 H       1  ZINC000624498741    0.1000
     33 H33       -12.1613    0.8215   54.5926 H       1  ZINC000624498741    0.1000
     34 H34       -13.8196    1.5831   53.0582 H       1  ZINC000624498741    0.0800
     35 H35       -12.2695    1.8946   52.2404 H       1  ZINC000624498741    0.0800
     36 H36       -12.5637   -0.4426   51.1726 H       1  ZINC000624498741    0.1100
     37 H37       -14.2496   -0.3553   51.7368 H       1  ZINC000624498741    0.1000
     38 H38       -14.3747    2.6710   51.4974 H       1  ZINC000624498741    0.1600
     39 H39       -14.9554    4.0892   49.6140 H       1  ZINC000624498741    0.1500
     40 H40       -14.6205    3.2667   47.2894 H       1  ZINC000624498741    0.1400
     41 H41       -13.7018    1.0180   46.9293 H       1  ZINC000624498741    0.1500
     42 H42        -6.7896   -1.1399   51.3218 H       1  ZINC000624498741    0.1500
     43 H43        -4.4817   -0.3525   51.0138 H       1  ZINC000624498741    0.1500
@<TRIPOS>BOND
     1     1     2    1
     2     1    28    1
     3     1    29    1
     4     1    30    1
     5     2    22   ar
     6     2     3   ar
     7     3     4   ar
     8     3    31    1
     9     4     5    1
    10     4    20   ar
    11     5    19    1
    12     5     6    2
    13     6     7    1
    14     7     8    1
    15     7    18    2
    16     8     9    1
    17     8    32    1
    18     8    33    1
    19     9    10    1
    20     9    34    1
    21     9    35    1
    22    10    11    1
    23    10    36    1
    24    10    37    1
    25    11    16   am
    26    11    12    1
    27    12    13    2
    28    12    38    1
    29    13    14    1
    30    13    39    1
    31    14    15    2
    32    14    40    1
    33    15    16    1
    34    15    41    1
    35    16    17    2
    36    18    19    1
    37    20    21   ar
    38    20    42    1
    39    21    22   ar
    40    21    43    1
    41    22    23    1
    42    23    24    1
    43    24    25    1
    44    24    26    1
    45    24    27    1
@<TRIPOS>SUBSTRUCTURE
     1 ZINC000624498741        1 TEMP              0 ****  ****    0 ROOT


##########                                Name:    ZINC000175255939
##########                DOCK_Rotatable_Bonds:                   8
##########                         Heavy_Atoms:                  28
##########                    Molecular_Weight:             394.375
##########                DOCK_Rotatable_Bonds:                   8
##########                       Formal_Charge:          -0.0399999
##########                     HBond_Acceptors:                   9
##########                        HBond_Donors:                   1
##########                         Heavy_Atoms:                  28
##########                          Grid_Score:          -32.085358
##########                     Grid_vdw_energy:          -32.042397
##########                      Grid_es_energy:           -0.042961
##########           Internal_energy_repulsive:            7.531511

@<TRIPOS>MOLECULE
ZINC000175255939
 48 50 1 0 0
SMALL
USER_CHARGES


@<TRIPOS>ATOM
      1 C1        -10.7833   -1.9767   59.0085 C.3     1  ZINC000175255939    0.0300
      2 O2        -10.9875   -1.3757   57.7025 O.3     1  ZINC000175255939   -0.3600
      3 C3        -12.0916   -1.7383   57.0307 C.2     1  ZINC000175255939    0.4600
      4 O4        -12.8801   -2.5038   57.5327 O.2     1  ZINC000175255939   -0.5000
      5 C5        -12.3476   -1.1905   55.6504 C.3     1  ZINC000175255939   -0.0800
      6 H6        -12.8314   -1.9535   55.0406 H       1  ZINC000175255939    0.1100
      7 C7        -13.2570    0.0360   55.7489 C.3     1  ZINC000175255939   -0.1200
      8 C8        -13.5168    0.5921   54.3475 C.3     1  ZINC000175255939   -0.1100
      9 C9        -12.1882    0.9928   53.7033 C.3     1  ZINC000175255939   -0.1200
     10 C10       -11.2788   -0.2336   53.6047 C.3     1  ZINC000175255939   -0.1000
     11 H11       -11.7626   -0.9966   52.9950 H       1  ZINC000175255939    0.1100
     12 C12        -9.9701    0.1612   52.9703 C.2     1  ZINC000175255939    0.5100
     13 O13        -9.8659    1.2323   52.4112 O.2     1  ZINC000175255939   -0.4800
     14 N14        -8.9154   -0.6762   53.0243 N.am    1  ZINC000175255939   -0.6300
     15 C15        -7.7108   -0.3133   52.4386 C.2     1  ZINC000175255939    0.2100
     16 C16        -6.9202    0.7412   52.7857 C.2     1  ZINC000175255939   -0.2600
     17 C17        -5.8270    0.6578   51.8847 C.2     1  ZINC000175255939    0.0900
     18 C18        -4.6576    1.5687   51.8166 C.ar    1  ZINC000175255939   -0.0500
     19 C19        -4.7647    2.8783   52.2816 C.ar    1  ZINC000175255939   -0.0600
     20 C20        -3.6764    3.7225   52.2171 C.ar    1  ZINC000175255939   -0.1300
     21 C21        -2.4748    3.2693   51.6893 C.ar    1  ZINC000175255939    0.1200
     22 O22        -1.4042    4.1032   51.6270 O.3     1  ZINC000175255939   -0.3200
     23 C23        -0.4352    3.9940   52.6715 C.3     1  ZINC000175255939    0.4100
     24 F24         0.7342    4.6632   52.2943 F       1  ZINC000175255939   -0.2000
     25 F25        -0.9440    4.5677   53.8416 F       1  ZINC000175255939   -0.2000
     26 C26        -2.3652    1.9652   51.2254 C.ar    1  ZINC000175255939   -0.1900
     27 C27        -3.4484    1.1146   51.2931 C.ar    1  ZINC000175255939   -0.0500
     28 N28        -6.0572   -0.3857   51.1240 N.2     1  ZINC000175255939   -0.3600
     29 O29        -7.0916   -0.9353   51.4226 O.3     1  ZINC000175255939    0.1200
     30 C30       -11.0189   -0.7897   55.0061 C.3     1  ZINC000175255939   -0.0900
     31 H31        -9.8571   -1.5988   59.4415 H       1  ZINC000175255939    0.1000
     32 H32       -11.6193   -1.7224   59.6601 H       1  ZINC000175255939    0.0600
     33 H33       -10.7202   -3.0598   58.9041 H       1  ZINC000175255939    0.0600
     34 H34       -14.2035   -0.2496   56.2078 H       1  ZINC000175255939    0.0800
     35 H35       -12.7731    0.7990   56.3586 H       1  ZINC000175255939    0.0700
     36 H36       -14.0008   -0.1709   53.7377 H       1  ZINC000175255939    0.0700
     37 H37       -14.1648    1.4658   54.4177 H       1  ZINC000175255939    0.0800
     38 H38       -12.3733    1.3891   52.7049 H       1  ZINC000175255939    0.0700
     39 H39       -11.7044    1.7559   54.3130 H       1  ZINC000175255939    0.0800
     40 H40        -8.9983   -1.5324   53.4725 H       1  ZINC000175255939    0.4300
     41 H41        -7.0869    1.4705   53.5647 H       1  ZINC000175255939    0.1800
     42 H42        -5.6993    3.2316   52.6916 H       1  ZINC000175255939    0.1400
     43 H43        -3.7589    4.7374   52.5772 H       1  ZINC000175255939    0.1400
     44 H44        -0.2105    2.9425   52.8502 H       1  ZINC000175255939    0.1900
     45 H45        -1.4294    1.6153   50.8152 H       1  ZINC000175255939    0.1400
     46 H46        -3.3624    0.1003   50.9324 H       1  ZINC000175255939    0.1400
     47 H47       -10.5351   -0.0267   55.6159 H       1  ZINC000175255939    0.0900
     48 H48       -10.3710   -1.6635   54.9360 H       1  ZINC000175255939    0.0800
@<TRIPOS>BOND
     1     1     2    1
     2     1    31    1
     3     1    32    1
     4     1    33    1
     5     2     3    1
     6     3     4    2
     7     3     5    1
     8     5     6    1
     9     5    30    1
    10     5     7    1
    11     7     8    1
    12     7    34    1
    13     7    35    1
    14     8     9    1
    15     8    36    1
    16     8    37    1
    17     9    10    1
    18     9    38    1
    19     9    39    1
    20    10    11    1
    21    10    12    1
    22    10    30    1
    23    12    13    2
    24    12    14   am
    25    14    15    1
    26    14    40    1
    27    15    29    1
    28    15    16    2
    29    16    17    1
    30    16    41    1
    31    17    18    1
    32    17    28    2
    33    18    27   ar
    34    18    19   ar
    35    19    20   ar
    36    19    42    1
    37    20    21   ar
    38    20    43    1
    39    21    22    1
    40    21    26   ar
    41    22    23    1
    42    23    24    1
    43    23    25    1
    44    23    44    1
    45    26    27   ar
    46    26    45    1
    47    27    46    1
    48    28    29    1
    49    30    47    1
    50    30    48    1
@<TRIPOS>SUBSTRUCTURE
     1 ZINC000175255939        1 TEMP              0 ****  ****    0 ROOT


##########                                Name:    ZINC001369071670
##########                DOCK_Rotatable_Bonds:                   8
##########                         Heavy_Atoms:                  24
##########                    Molecular_Weight:             335.366
##########                DOCK_Rotatable_Bonds:                   8
##########                       Formal_Charge:        -2.90573e-07
##########                     HBond_Acceptors:                  10
##########                        HBond_Donors:                   1
##########                         Heavy_Atoms:                  24
##########                          Grid_Score:          -32.080894
##########                     Grid_vdw_energy:          -31.098728
##########                      Grid_es_energy:           -0.982167
##########           Internal_energy_repulsive:            9.261673

@<TRIPOS>MOLECULE
ZINC001369071670
 45 47 1 0 0
SMALL
USER_CHARGES


@<TRIPOS>ATOM
      1 C1        -11.2158   -1.2288   55.9817 C.3     1  ZINC001369071670   -0.0800
      2 C2        -11.1523   -0.5109   54.6581 C.2     1  ZINC001369071670    0.0000
      3 C3        -10.5187    0.6563   54.4011 C.2     1  ZINC001369071670   -0.2300
      4 C4        -10.7669    0.8843   53.0224 C.2     1  ZINC001369071670    0.2100
      5 O5        -10.3379    1.9366   52.2807 O.3     1  ZINC001369071670   -0.2600
      6 C6         -9.3607    2.7934   52.8747 C.3     1  ZINC001369071670    0.0400
      7 C7         -8.0439    2.0662   52.9658 C.2     1  ZINC001369071670    0.5200
      8 O8         -7.6748    1.6109   54.0276 O.2     1  ZINC001369071670   -0.5100
      9 N9         -7.2764    1.9217   51.8673 N.am    1  ZINC001369071670   -0.7200
     10 C10        -5.9972    1.2132   51.9556 C.3     1  ZINC001369071670    0.1500
     11 H11        -5.5756    1.3471   52.9518 H       1  ZINC001369071670    0.0900
     12 C12        -6.2204   -0.2773   51.6924 C.3     1  ZINC001369071670   -0.1700
     13 C13        -5.0295    1.7759   50.9125 C.3     1  ZINC001369071670   -0.1200
     14 C14        -4.6755    3.2579   51.1316 C.3     1  ZINC001369071670    0.0100
     15 N15        -3.2867    2.8735   50.7957 N.3     1  ZINC001369071670   -0.4800
     16 C16        -2.3275    3.5237   51.6984 C.3     1  ZINC001369071670    0.1000
     17 C17        -0.9236    3.1793   51.2721 C.2     1  ZINC001369071670    0.1900
     18 N18        -0.5690    2.5657   50.1696 N.2     1  ZINC001369071670   -0.3000
     19 N19         0.7149    2.4577   50.1697 N.2     1  ZINC001369071670   -0.0700
     20 N20         1.1884    2.9864   51.2436 N.2     1  ZINC001369071670   -0.0900
     21 N21         0.2097    3.4473   51.9468 N.pl3   1  ZINC001369071670   -0.3000
     22 C22         0.3121    4.1261   53.2410 C.3     1  ZINC001369071670    0.0800
     23 C23        -3.5498    1.4796   51.2165 C.3     1  ZINC001369071670    0.0200
     24 N24       -11.4905   -0.1220   52.6102 N.2     1  ZINC001369071670   -0.4100
     25 O25       -11.7078   -0.9070   53.5040 O.3     1  ZINC001369071670    0.1000
     26 H26       -11.7949   -2.1455   55.8703 H       1  ZINC001369071670    0.0900
     27 H27       -10.2061   -1.4747   56.3105 H       1  ZINC001369071670    0.1000
     28 H28       -11.6924   -0.5856   56.7214 H       1  ZINC001369071670    0.1000
     29 H29        -9.9548    1.2720   55.0861 H       1  ZINC001369071670    0.1800
     30 H30        -9.2405    3.6871   52.2621 H       1  ZINC001369071670    0.1000
     31 H31        -9.6877    3.0795   53.8743 H       1  ZINC001369071670    0.1000
     32 H32        -7.5710    2.2869   51.0184 H       1  ZINC001369071670    0.4000
     33 H33        -6.9099   -0.6781   52.4355 H       1  ZINC001369071670    0.0600
     34 H34        -6.6420   -0.4112   50.6962 H       1  ZINC001369071670    0.0600
     35 H35        -5.2687   -0.8045   51.7580 H       1  ZINC001369071670    0.0700
     36 H36        -5.3231    1.5399   49.8897 H       1  ZINC001369071670    0.1100
     37 H37        -5.1326    3.9306   50.4059 H       1  ZINC001369071670    0.1000
     38 H38        -4.8017    3.5920   52.1615 H       1  ZINC001369071670    0.0800
     39 H39        -2.4649    4.6042   51.6573 H       1  ZINC001369071670    0.1000
     40 H40        -2.4936    3.1748   52.7176 H       1  ZINC001369071670    0.0900
     41 H41         0.4184    5.1991   53.0812 H       1  ZINC001369071670    0.1000
     42 H42        -0.5880    3.9332   53.8247 H       1  ZINC001369071670    0.1000
     43 H43         1.1821    3.7512   53.7801 H       1  ZINC001369071670    0.1100
     44 H44        -3.3470    1.2935   52.2712 H       1  ZINC001369071670    0.0800
     45 H45        -3.1077    0.7313   50.5587 H       1  ZINC001369071670    0.1000
@<TRIPOS>BOND
     1     1     2    1
     2     1    26    1
     3     1    27    1
     4     1    28    1
     5     2    25    1
     6     2     3    2
     7     3     4    1
     8     3    29    1
     9     4     5    1
    10     4    24    2
    11     5     6    1
    12     6     7    1
    13     6    30    1
    14     6    31    1
    15     7     8    2
    16     7     9   am
    17     9    10    1
    18     9    32    1
    19    10    11    1
    20    10    12    1
    21    10    13    1
    22    12    33    1
    23    12    34    1
    24    12    35    1
    25    13    23    1
    26    13    14    1
    27    13    36    1
    28    14    15    1
    29    14    37    1
    30    14    38    1
    31    15    16    1
    32    15    23    1
    33    16    17    1
    34    16    39    1
    35    16    40    1
    36    17    21    1
    37    17    18    2
    38    18    19    1
    39    19    20    2
    40    20    21    1
    41    21    22    1
    42    22    41    1
    43    22    42    1
    44    22    43    1
    45    23    44    1
    46    23    45    1
    47    24    25    1
@<TRIPOS>SUBSTRUCTURE
     1 ZINC001369071670        1 TEMP              0 ****  ****    0 ROOT


##########                                Name:    ZINC000787750060
##########                DOCK_Rotatable_Bonds:                   6
##########                         Heavy_Atoms:                  24
##########                    Molecular_Weight:             347.438
##########                DOCK_Rotatable_Bonds:                   6
##########                       Formal_Charge:           0.0200003
##########                     HBond_Acceptors:                   7
##########                        HBond_Donors:                   2
##########                         Heavy_Atoms:                  24
##########                          Grid_Score:          -32.068600
##########                     Grid_vdw_energy:          -32.440151
##########                      Grid_es_energy:            0.371551
##########           Internal_energy_repulsive:            6.827127

@<TRIPOS>MOLECULE
ZINC000787750060
 45 47 1 0 0
SMALL
USER_CHARGES


@<TRIPOS>ATOM
      1 C1          0.2431    4.1987   53.1464 C.3     1  ZINC000787750060   -0.1200
      2 C2         -1.0076    3.5196   52.6506 C.ar    1  ZINC000787750060   -0.0400
      3 C3         -2.2057    3.7107   53.3188 C.ar    1  ZINC000787750060   -0.1300
      4 C4         -3.3557    3.0946   52.8743 C.ar    1  ZINC000787750060   -0.0700
      5 C5         -3.3141    2.2741   51.7448 C.ar    1  ZINC000787750060   -0.1700
      6 C6         -4.5415    1.6119   51.2631 C.2     1  ZINC000787750060    0.5600
      7 O7         -5.1547    2.0781   50.3224 O.2     1  ZINC000787750060   -0.5200
      8 N8         -4.9828    0.4902   51.8660 N.am    1  ZINC000787750060   -0.7300
      9 C9         -6.2025   -0.1664   51.3888 C.3     1  ZINC000787750060    0.2100
     10 C10        -7.3620    0.2288   52.2667 C.2     1  ZINC000787750060   -0.2800
     11 C11        -7.5318    1.4144   52.8525 C.2     1  ZINC000787750060    0.0900
     12 N12        -8.6327    1.5174   53.5757 N.2     1  ZINC000787750060   -0.5200
     13 C13        -9.4000    0.4731   53.6271 C.2     1  ZINC000787750060    0.2300
     14 N14       -10.5908    0.3967   54.3323 N.3     1  ZINC000787750060   -0.4500
     15 C15       -10.8152   -0.9640   54.8416 C.3     1  ZINC000787750060    0.0200
     16 C16       -12.1073   -0.9893   55.6622 C.3     1  ZINC000787750060    0.0600
     17 O17       -13.1911   -0.5296   54.8501 O.3     1  ZINC000787750060   -0.3800
     18 C18       -13.0061    0.7927   54.3379 C.3     1  ZINC000787750060    0.0600
     19 C19       -11.7229    0.8360   53.5037 C.3     1  ZINC000787750060    0.0300
     20 S20        -8.7329   -0.7928   52.6913 S.3     1  ZINC000787750060    0.1700
     21 C21        -2.0996    2.0836   51.0711 C.ar    1  ZINC000787750060    0.1700
     22 O22        -2.0470    1.2889   49.9729 O.3     1  ZINC000787750060   -0.4700
     23 C23        -0.9534    2.7151   51.5295 C.ar    1  ZINC000787750060   -0.1200
     24 C24         0.3553    2.5145   50.8097 C.3     1  ZINC000787750060   -0.1200
     25 H25         0.3384    5.1756   52.6724 H       1  ZINC000787750060    0.0800
     26 H26         0.1845    4.3237   54.2276 H       1  ZINC000787750060    0.0700
     27 H27         1.1111    3.5880   52.8978 H       1  ZINC000787750060    0.0800
     28 H28        -2.2389    4.3449   54.1923 H       1  ZINC000787750060    0.1300
     29 H29        -4.2875    3.2459   53.3988 H       1  ZINC000787750060    0.1300
     30 H30        -4.4930    0.1176   52.6157 H       1  ZINC000787750060    0.4000
     31 H31        -6.4027    0.1409   50.3624 H       1  ZINC000787750060    0.0900
     32 H32        -6.0712   -1.2477   51.4253 H       1  ZINC000787750060    0.0800
     33 H33        -6.8264    2.2251   52.7447 H       1  ZINC000787750060    0.1800
     34 H34       -10.9023   -1.6563   54.0041 H       1  ZINC000787750060    0.0600
     35 H35        -9.9772   -1.2591   55.4729 H       1  ZINC000787750060    0.1000
     36 H36       -12.3079   -2.0081   55.9941 H       1  ZINC000787750060    0.1100
     37 H37       -12.0006   -0.3378   56.5295 H       1  ZINC000787750060    0.0700
     38 H38       -13.8564    1.0628   53.7117 H       1  ZINC000787750060    0.1100
     39 H39       -12.9253    1.4962   55.1665 H       1  ZINC000787750060    0.0600
     40 H40       -11.5475    1.8550   53.1585 H       1  ZINC000787750060    0.1000
     41 H41       -11.8245    0.1726   52.6449 H       1  ZINC000787750060    0.0700
     42 H42        -2.9145    1.0386   49.6266 H       1  ZINC000787750060    0.4000
     43 H43         0.4650    3.2750   50.0366 H       1  ZINC000787750060    0.0700
     44 H44         1.1774    2.5977   51.5205 H       1  ZINC000787750060    0.0700
     45 H45         0.3700    1.5256   50.3514 H       1  ZINC000787750060    0.0800
@<TRIPOS>BOND
     1     1     2    1
     2     1    25    1
     3     1    26    1
     4     1    27    1
     5     2    23   ar
     6     2     3   ar
     7     3     4   ar
     8     3    28    1
     9     4     5   ar
    10     4    29    1
    11     5     6    1
    12     5    21   ar
    13     6     7    2
    14     6     8   am
    15     8     9    1
    16     8    30    1
    17     9    10    1
    18     9    31    1
    19     9    32    1
    20    10    20    1
    21    10    11    2
    22    11    12    1
    23    11    33    1
    24    12    13    2
    25    13    14    1
    26    13    20    1
    27    14    19    1
    28    14    15    1
    29    15    16    1
    30    15    34    1
    31    15    35    1
    32    16    17    1
    33    16    36    1
    34    16    37    1
    35    17    18    1
    36    18    19    1
    37    18    38    1
    38    18    39    1
    39    19    40    1
    40    19    41    1
    41    21    22    1
    42    21    23   ar
    43    22    42    1
    44    23    24    1
    45    24    43    1
    46    24    44    1
    47    24    45    1
@<TRIPOS>SUBSTRUCTURE
     1 ZINC000787750060        1 TEMP              0 ****  ****    0 ROOT


##########                                Name:    ZINC000740843182
##########                DOCK_Rotatable_Bonds:                  10
##########                         Heavy_Atoms:                  24
##########                    Molecular_Weight:              419.34
##########                DOCK_Rotatable_Bonds:                  10
##########                       Formal_Charge:          0.00999957
##########                     HBond_Acceptors:                   7
##########                        HBond_Donors:                   3
##########                         Heavy_Atoms:                  24
##########                          Grid_Score:          -32.068436
##########                     Grid_vdw_energy:          -30.202761
##########                      Grid_es_energy:           -1.865676
##########           Internal_energy_repulsive:           10.265286

@<TRIPOS>MOLECULE
ZINC000740843182
 47 48 1 0 0
SMALL
USER_CHARGES


@<TRIPOS>ATOM
      1 C1          3.8288    2.7643   52.9590 C.3     1  ZINC000740843182   -0.1500
      2 C2          2.6108    2.5919   52.0492 C.3     1  ZINC000740843182   -0.1000
      3 H3          2.0238    1.7374   52.3860 H       1  ZINC000740843182    0.0900
      4 C4          1.7501    3.8556   52.1044 C.3     1  ZINC000740843182    0.1200
      5 N5          0.3764    3.4957   52.4640 N.am    1  ZINC000740843182   -0.7200
      6 C6         -0.6225    4.3816   52.2804 C.2     1  ZINC000740843182    0.5500
      7 O7         -0.3833    5.4800   51.8177 O.2     1  ZINC000740843182   -0.5000
      8 C8         -2.0087    4.0178   52.6416 C.ar    1  ZINC000740843182   -0.1300
      9 C9         -2.9176    3.6476   51.6492 C.ar    1  ZINC000740843182    0.0200
     10 C10        -4.2098    3.3087   51.9932 C.ar    1  ZINC000740843182   -0.6800
     11 S11        -5.3584    2.8411   50.7415 S.o2    1  ZINC000740843182    2.7000
     12 O12        -6.1203    4.0026   50.4418 O.2     1  ZINC000740843182   -0.9400
     13 O13        -4.6169    2.1245   49.7639 O.2     1  ZINC000740843182   -0.9500
     14 N14        -6.4085    1.7555   51.4206 N.am    1  ZINC000740843182   -1.0900
     15 C15        -5.9040    0.4971   51.9753 C.3     1  ZINC000740843182    0.0800
     16 C16        -6.9338   -0.5576   52.3853 C.3     1  ZINC000740843182   -0.1800
     17 C17        -6.0807   -0.7677   51.1325 C.3     1  ZINC000740843182   -0.1900
     18 C18        -4.6062    3.3346   53.3187 C.ar    1  ZINC000740843182    0.0100
     19 C19        -3.7113    3.7003   54.3079 C.ar    1  ZINC000740843182   -0.1200
     20 C20        -2.4135    4.0373   53.9786 C.ar    1  ZINC000740843182    0.0100
     21 Br21       -1.1912    4.5372   55.3320 Br      1  ZINC000740843182    0.0100
     22 C22         3.0776    2.3551   50.6115 C.3     1  ZINC000740843182   -0.1400
     23 C23         2.2177    1.2648   49.9691 C.3     1  ZINC000740843182    0.1000
     24 H24         2.2633    0.3610   50.5765 H       1  ZINC000740843182    0.1000
     25 C25         2.7430    0.9624   48.5643 C.3     1  ZINC000740843182   -0.1900
     26 O26         0.8637    1.7141   49.8847 O.3     1  ZINC000740843182   -0.5600
     27 H27         4.4420    1.8640   52.9198 H       1  ZINC000740843182    0.0600
     28 H28         4.4158    3.6187   52.6223 H       1  ZINC000740843182    0.0600
     29 H29         3.4962    2.9330   53.9833 H       1  ZINC000740843182    0.0500
     30 H30         2.1545    4.5382   52.8518 H       1  ZINC000740843182    0.0700
     31 H31         1.7548    4.3413   51.1285 H       1  ZINC000740843182    0.0700
     32 H32         0.1857    2.6197   52.8343 H       1  ZINC000740843182    0.4000
     33 H33        -2.6100    3.6268   50.6142 H       1  ZINC000740843182    0.1500
     34 H34        -7.3577    1.9530   51.4510 H       1  ZINC000740843182    0.4200
     35 H35        -4.9990    0.5781   52.5775 H       1  ZINC000740843182    0.1400
     36 H36        -6.7066   -1.1705   53.2575 H       1  ZINC000740843182    0.1100
     37 H37        -7.9868   -0.3151   52.2421 H       1  ZINC000740843182    0.1000
     38 H38        -6.5725   -0.6633   50.1655 H       1  ZINC000740843182    0.1000
     39 H39        -5.2923   -1.5188   51.1807 H       1  ZINC000740843182    0.1100
     40 H40        -5.6192    3.0681   53.5819 H       1  ZINC000740843182    0.1600
     41 H41        -4.0272    3.7184   55.3405 H       1  ZINC000740843182    0.1500
     42 H42         2.9795    3.2786   50.0409 H       1  ZINC000740843182    0.0700
     43 H43         4.1209    2.0396   50.6156 H       1  ZINC000740843182    0.0800
     44 H44         3.7758    0.6197   48.6287 H       1  ZINC000740843182    0.0700
     45 H45         2.1304    0.1857   48.1067 H       1  ZINC000740843182    0.0600
     46 H46         2.6974    1.8663   47.9569 H       1  ZINC000740843182    0.0600
     47 H47         0.7503    2.5278   49.3747 H       1  ZINC000740843182    0.3700
@<TRIPOS>BOND
     1     1     2    1
     2     1    27    1
     3     1    28    1
     4     1    29    1
     5     2     3    1
     6     2     4    1
     7     2    22    1
     8     4     5    1
     9     4    30    1
    10     4    31    1
    11     5     6   am
    12     5    32    1
    13     6     7    2
    14     6     8    1
    15     8    20   ar
    16     8     9   ar
    17     9    10   ar
    18     9    33    1
    19    10    11    1
    20    10    18   ar
    21    11    12    2
    22    11    13    2
    23    11    14   am
    24    14    15    1
    25    14    34    1
    26    15    17    1
    27    15    16    1
    28    15    35    1
    29    16    17    1
    30    16    36    1
    31    16    37    1
    32    17    38    1
    33    17    39    1
    34    18    19   ar
    35    18    40    1
    36    19    20   ar
    37    19    41    1
    38    20    21    1
    39    22    23    1
    40    22    42    1
    41    22    43    1
    42    23    24    1
    43    23    25    1
    44    23    26    1
    45    25    44    1
    46    25    45    1
    47    25    46    1
    48    26    47    1
@<TRIPOS>SUBSTRUCTURE
     1 ZINC000740843182        1 TEMP              0 ****  ****    0 ROOT


##########                                Name:    ZINC001371344729
##########                DOCK_Rotatable_Bonds:                   9
##########                         Heavy_Atoms:                  24
##########                    Molecular_Weight:             332.399
##########                DOCK_Rotatable_Bonds:                   9
##########                       Formal_Charge:          0.00999983
##########                     HBond_Acceptors:                   6
##########                        HBond_Donors:                   1
##########                         Heavy_Atoms:                  24
##########                          Grid_Score:          -32.054710
##########                     Grid_vdw_energy:          -31.029821
##########                      Grid_es_energy:           -1.024890
##########           Internal_energy_repulsive:           26.614391

@<TRIPOS>MOLECULE
ZINC001371344729
 48 49 1 0 0
SMALL
USER_CHARGES


@<TRIPOS>ATOM
      1 C1         -5.9726    3.8468   54.3578 C.3     1  ZINC001371344729   -0.1800
      2 C2         -5.0748    4.4429   53.2719 C.3     1  ZINC001371344729    0.1000
      3 N3         -5.1310    3.6002   52.0748 N.am    1  ZINC001371344729   -0.6100
      4 C4         -6.0060    3.8859   51.0901 C.2     1  ZINC001371344729    0.5100
      5 O5         -6.0516    3.1892   50.0984 O.2     1  ZINC001371344729   -0.5200
      6 C6         -6.9276    5.0710   51.2215 C.3     1  ZINC001371344729   -0.0600
      7 C7         -8.0170    4.9775   50.1844 C.2     1  ZINC001371344729   -0.0100
      8 C8         -9.2229    4.4075   50.3593 C.2     1  ZINC001371344729   -0.1600
      9 C9         -9.7318    3.7506   51.6166 C.3     1  ZINC001371344729   -0.0800
     10 C10        -9.9188    4.5376   49.1356 C.2     1  ZINC001371344729   -0.2100
     11 C11        -9.1002    5.1877   48.2890 C.2     1  ZINC001371344729   -0.0300
     12 O12        -7.9484    5.4483   48.9285 O.3     1  ZINC001371344729   -0.1700
     13 C13        -4.2363    2.4472   51.9479 C.3     1  ZINC001371344729    0.1200
     14 H14        -3.6888    2.3078   52.8800 H       1  ZINC001371344729    0.1100
     15 C15        -3.2469    2.6926   50.8069 C.3     1  ZINC001371344729   -0.1600
     16 C16        -5.0599    1.1932   51.6479 C.3     1  ZINC001371344729    0.1100
     17 N17        -6.3258    1.2528   52.3829 N.am    1  ZINC001371344729   -0.7200
     18 C18        -7.2477    0.2838   52.2170 C.2     1  ZINC001371344729    0.5900
     19 O19        -7.0281   -0.6408   51.4581 O.2     1  ZINC001371344729   -0.5300
     20 C20        -8.5218    0.3448   52.9551 C.2     1  ZINC001371344729   -0.2300
     21 C21        -8.8317    1.1668   53.9987 C.2     1  ZINC001371344729    0.0200
     22 O22       -10.0861    0.9084   54.3810 O.3     1  ZINC001371344729   -0.1700
     23 C23       -10.6239   -0.0668   53.6319 C.2     1  ZINC001371344729   -0.0100
     24 C24       -12.0179   -0.6183   53.7853 C.3     1  ZINC001371344729   -0.0800
     25 C25        -9.7223   -0.4722   52.7246 C.2     1  ZINC001371344729   -0.1600
     26 H26        -5.6274    2.8426   54.6038 H       1  ZINC001371344729    0.0700
     27 H27        -5.9307    4.4738   55.2485 H       1  ZINC001371344729    0.0700
     28 H28        -6.9993    3.7993   53.9949 H       1  ZINC001371344729    0.0600
     29 H29        -4.0481    4.4903   53.6348 H       1  ZINC001371344729    0.0900
     30 H30        -5.4200    5.4471   53.0259 H       1  ZINC001371344729    0.0800
     31 H31        -6.3613    5.9901   51.0716 H       1  ZINC001371344729    0.1100
     32 H32        -7.3727    5.0766   52.2165 H       1  ZINC001371344729    0.1200
     33 H33       -10.2343    4.4930   52.2366 H       1  ZINC001371344729    0.0700
     34 H34       -10.4351    2.9603   51.3544 H       1  ZINC001371344729    0.0700
     35 H35        -8.8942    3.3236   52.1681 H       1  ZINC001371344729    0.0600
     36 H36       -10.9172    4.1853   48.9223 H       1  ZINC001371344729    0.1500
     37 H37        -9.3285    5.4505   47.2666 H       1  ZINC001371344729    0.2000
     38 H38        -2.6602    3.5860   51.0207 H       1  ZINC001371344729    0.0700
     39 H39        -2.5812    1.8347   50.7124 H       1  ZINC001371344729    0.0700
     40 H40        -3.7945    2.8320   49.8748 H       1  ZINC001371344729    0.0700
     41 H41        -5.2630    1.1392   50.5783 H       1  ZINC001371344729    0.0800
     42 H42        -4.5017    0.3094   51.9566 H       1  ZINC001371344729    0.0800
     43 H43        -6.5004    1.9897   52.9890 H       1  ZINC001371344729    0.4000
     44 H44        -8.1757    1.9028   54.4396 H       1  ZINC001371344729    0.2100
     45 H45       -12.0031   -1.4540   54.4850 H       1  ZINC001371344729    0.0800
     46 H46       -12.6776    0.1618   54.1649 H       1  ZINC001371344729    0.0800
     47 H47       -12.3813   -0.9619   52.8168 H       1  ZINC001371344729    0.0900
     48 H48        -9.8520   -1.2413   51.9776 H       1  ZINC001371344729    0.1600
@<TRIPOS>BOND
     1     1     2    1
     2     1    26    1
     3     1    27    1
     4     1    28    1
     5     2     3    1
     6     2    29    1
     7     2    30    1
     8     3     4   am
     9     3    13    1
    10     4     5    2
    11     4     6    1
    12     6     7    1
    13     6    31    1
    14     6    32    1
    15     7    12    1
    16     7     8    2
    17     8     9    1
    18     8    10    1
    19     9    33    1
    20     9    34    1
    21     9    35    1
    22    10    11    2
    23    10    36    1
    24    11    12    1
    25    11    37    1
    26    13    14    1
    27    13    15    1
    28    13    16    1
    29    15    38    1
    30    15    39    1
    31    15    40    1
    32    16    17    1
    33    16    41    1
    34    16    42    1
    35    17    18   am
    36    17    43    1
    37    18    19    2
    38    18    20    1
    39    20    25    1
    40    20    21    2
    41    21    22    1
    42    21    44    1
    43    22    23    1
    44    23    24    1
    45    23    25    2
    46    24    45    1
    47    24    46    1
    48    24    47    1
    49    25    48    1
@<TRIPOS>SUBSTRUCTURE
     1 ZINC001371344729        1 TEMP              0 ****  ****    0 ROOT


##########                                Name:    ZINC000114394234
##########                DOCK_Rotatable_Bonds:                   9
##########                         Heavy_Atoms:                  27
##########                    Molecular_Weight:             365.392
##########                DOCK_Rotatable_Bonds:                   9
##########                       Formal_Charge:           0.0300002
##########                     HBond_Acceptors:                   8
##########                        HBond_Donors:                   3
##########                         Heavy_Atoms:                  27
##########                          Grid_Score:          -32.036095
##########                     Grid_vdw_energy:          -32.449776
##########                      Grid_es_energy:            0.413682
##########           Internal_energy_repulsive:           21.294521

@<TRIPOS>MOLECULE
ZINC000114394234
 46 48 1 0 0
SMALL
USER_CHARGES


@<TRIPOS>ATOM
      1 C1          1.3166    3.7080   50.6077 C.3     1  ZINC000114394234   -0.1600
      2 C2          0.5643    3.0659   51.7749 C.3     1  ZINC000114394234    0.1300
      3 H3          0.9318    2.0515   51.9301 H       1  ZINC000114394234    0.1200
      4 N4          0.7823    3.8554   52.9897 N.am    1  ZINC000114394234   -0.7100
      5 C5          1.9449    3.7488   53.6631 C.2     1  ZINC000114394234    0.5200
      6 O6          2.8101    2.9982   53.2642 O.2     1  ZINC000114394234   -0.5100
      7 C7          2.1698    4.5621   54.9115 C.3     1  ZINC000114394234    0.0400
      8 O8          1.9915    3.7309   56.0602 O.3     1  ZINC000114394234   -0.2900
      9 C9          0.7172    3.3782   56.3748 C.ar    1  ZINC000114394234    0.1300
     10 C10        -0.3514    4.0036   55.7489 C.ar    1  ZINC000114394234   -0.2100
     11 C11        -1.6457    3.6429   56.0701 C.ar    1  ZINC000114394234   -0.0800
     12 C12        -1.8766    2.6600   57.0146 C.ar    1  ZINC000114394234   -0.1600
     13 C13        -0.8132    2.0356   57.6401 C.ar    1  ZINC000114394234   -0.0800
     14 C14         0.4831    2.3883   57.3180 C.ar    1  ZINC000114394234   -0.1500
     15 C15        -0.9090    3.0239   51.4607 C.2     1  ZINC000114394234    0.5100
     16 O16        -1.2984    2.4753   50.4514 O.2     1  ZINC000114394234   -0.5100
     17 N17        -1.7939    3.5957   52.3011 N.am    1  ZINC000114394234   -0.6700
     18 C18        -3.1619    3.5566   52.0092 C.ar    1  ZINC000114394234    0.1300
     19 C19        -3.8347    4.7252   51.6747 C.ar    1  ZINC000114394234   -0.1200
     20 C20        -5.1859    4.6904   51.3858 C.ar    1  ZINC000114394234   -0.1000
     21 C21        -5.8745    3.4948   51.4285 C.ar    1  ZINC000114394234   -0.0900
     22 C22        -5.2076    2.3176   51.7636 C.ar    1  ZINC000114394234    0.0000
     23 C23        -5.9466    1.0314   51.8105 C.2     1  ZINC000114394234    0.2700
     24 N24        -5.4523   -0.1481   51.5046 N.2     1  ZINC000114394234   -0.3000
     25 N25        -6.4874   -1.0795   51.6872 N.pl3   1  ZINC000114394234   -0.4800
     26 C26        -7.5609   -0.3820   52.1005 C.2     1  ZINC000114394234    0.2700
     27 N27        -7.2263    0.8789   52.1768 N.2     1  ZINC000114394234   -0.5300
     28 C28        -3.8455    2.3505   52.0482 C.ar    1  ZINC000114394234   -0.0800
     29 H29         0.9491    4.7224   50.4525 H       1  ZINC000114394234    0.0700
     30 H30         2.3822    3.7384   50.8349 H       1  ZINC000114394234    0.0800
     31 H31         1.1544    3.1206   49.7038 H       1  ZINC000114394234    0.0800
     32 H32         0.0898    4.4547   53.3093 H       1  ZINC000114394234    0.4100
     33 H33         3.1836    4.9626   54.9066 H       1  ZINC000114394234    0.1000
     34 H34         1.4547    5.3842   54.9435 H       1  ZINC000114394234    0.1000
     35 H35        -0.1716    4.7720   55.0116 H       1  ZINC000114394234    0.1300
     36 H36        -2.4779    4.1295   55.5832 H       1  ZINC000114394234    0.1300
     37 H37        -2.8891    2.3796   57.2646 H       1  ZINC000114394234    0.1300
     38 H38        -0.9961    1.2683   58.3778 H       1  ZINC000114394234    0.1300
     39 H39         1.3133    1.9002   57.8068 H       1  ZINC000114394234    0.1300
     40 H40        -1.4825    4.0343   53.1083 H       1  ZINC000114394234    0.4200
     41 H41        -3.3006    5.6633   51.6406 H       1  ZINC000114394234    0.1300
     42 H42        -5.7046    5.6015   51.1263 H       1  ZINC000114394234    0.1400
     43 H43        -6.9304    3.4715   51.2025 H       1  ZINC000114394234    0.1400
     44 H44        -6.4380   -2.0375   51.5434 H       1  ZINC000114394234    0.4400
     45 H45        -8.5315   -0.7942   52.3339 H       1  ZINC000114394234    0.2300
     46 H46        -3.3244    1.4410   52.3083 H       1  ZINC000114394234    0.1500
@<TRIPOS>BOND
     1     1     2    1
     2     1    29    1
     3     1    30    1
     4     1    31    1
     5     2     3    1
     6     2     4    1
     7     2    15    1
     8     4     5   am
     9     4    32    1
    10     5     6    2
    11     5     7    1
    12     7     8    1
    13     7    33    1
    14     7    34    1
    15     8     9    1
    16     9    14   ar
    17     9    10   ar
    18    10    11   ar
    19    10    35    1
    20    11    12   ar
    21    11    36    1
    22    12    13   ar
    23    12    37    1
    24    13    14   ar
    25    13    38    1
    26    14    39    1
    27    15    16    2
    28    15    17   am
    29    17    18    1
    30    17    40    1
    31    18    28   ar
    32    18    19   ar
    33    19    20   ar
    34    19    41    1
    35    20    21   ar
    36    20    42    1
    37    21    22   ar
    38    21    43    1
    39    22    23    1
    40    22    28   ar
    41    23    27    1
    42    23    24    2
    43    24    25    1
    44    25    26    1
    45    25    44    1
    46    26    27    2
    47    26    45    1
    48    28    46    1
@<TRIPOS>SUBSTRUCTURE
     1 ZINC000114394234        1 TEMP              0 ****  ****    0 ROOT


##########                                Name:    ZINC001004075025
##########                DOCK_Rotatable_Bonds:                   8
##########                         Heavy_Atoms:                  25
##########                    Molecular_Weight:              349.43
##########                DOCK_Rotatable_Bonds:                   8
##########                       Formal_Charge:         -0.00999999
##########                     HBond_Acceptors:                   7
##########                        HBond_Donors:                   1
##########                         Heavy_Atoms:                  25
##########                          Grid_Score:          -32.035839
##########                     Grid_vdw_energy:          -29.979191
##########                      Grid_es_energy:           -2.056649
##########           Internal_energy_repulsive:            7.559639

@<TRIPOS>MOLECULE
ZINC001004075025
 52 54 1 0 0
SMALL
USER_CHARGES


@<TRIPOS>ATOM
      1 C1          0.2868   -1.5845   61.7978 C.3     1  ZINC001004075025   -0.1500
      2 C2          1.6705   -1.0230   61.4644 C.3     1  ZINC001004075025   -0.1200
      3 C3          1.5711    0.4901   61.2602 C.3     1  ZINC001004075025    0.0800
      4 H4          1.2750    0.9780   62.1888 H       1  ZINC001004075025    0.0700
      5 C5          2.9256    1.0558   60.7638 C.3     1  ZINC001004075025   -0.1500
      6 C6          2.4573    2.3445   60.0345 C.3     1  ZINC001004075025   -0.1400
      7 C7          1.0925    1.9151   59.4544 C.3     1  ZINC001004075025    0.0700
      8 H8          1.2081    1.6309   58.4085 H       1  ZINC001004075025    0.1100
      9 C9          0.1080    3.0501   59.5699 C.2     1  ZINC001004075025    0.5300
     10 O10        -0.0563    3.6043   60.6361 O.2     1  ZINC001004075025   -0.5200
     11 N11        -0.5902    3.4493   58.4884 N.am    1  ZINC001004075025   -0.6500
     12 C12        -1.5976    4.4813   58.2001 C.3     1  ZINC001004075025    0.1100
     13 C13        -2.1177    3.5811   57.0707 C.3     1  ZINC001004075025   -0.1400
     14 C14        -2.5013    4.3335   55.7950 C.3     1  ZINC001004075025    0.1300
     15 N15        -2.5175    3.4017   54.6646 N.am    1  ZINC001004075025   -0.7200
     16 C16        -2.2474    3.8459   53.4211 C.2     1  ZINC001004075025    0.6000
     17 O17        -1.9888    5.0198   53.2377 O.2     1  ZINC001004075025   -0.5300
     18 C18        -2.2654    2.9086   52.2836 C.2     1  ZINC001004075025   -0.2700
     19 C19        -3.3327    2.2248   51.7545 C.2     1  ZINC001004075025    0.0700
     20 C20        -4.7628    2.2766   52.2269 C.3     1  ZINC001004075025   -0.0300
     21 C21        -5.4058    3.5853   51.7635 C.3     1  ZINC001004075025   -0.1500
     22 C22        -5.5364    1.0932   51.6421 C.3     1  ZINC001004075025   -0.1500
     23 O23        -2.8512    1.5051   50.7385 O.3     1  ZINC001004075025    0.1000
     24 N24        -1.6645    1.6495   50.5751 N.2     1  ZINC001004075025   -0.3500
     25 C25        -1.1462    2.4797   51.4310 C.2     1  ZINC001004075025    0.0200
     26 C26        -0.6751    3.0492   57.0758 C.3     1  ZINC001004075025    0.1100
     27 O27         0.6312    0.7918   60.2168 O.3     1  ZINC001004075025   -0.3400
     28 H28         0.3575   -2.6624   61.9432 H       1  ZINC001004075025    0.0600
     29 H29        -0.0842   -1.1182   62.7104 H       1  ZINC001004075025    0.0500
     30 H30        -0.3986   -1.3728   60.9771 H       1  ZINC001004075025    0.0600
     31 H31         2.3559   -1.2347   62.2851 H       1  ZINC001004075025    0.0800
     32 H32         2.0415   -1.4892   60.5517 H       1  ZINC001004075025    0.0700
     33 H33         3.5820    1.2946   61.6006 H       1  ZINC001004075025    0.0900
     34 H34         3.4092    0.3665   60.0718 H       1  ZINC001004075025    0.0900
     35 H35         2.3376    3.1674   60.7392 H       1  ZINC001004075025    0.0800
     36 H36         3.1504    2.6127   59.2372 H       1  ZINC001004075025    0.0900
     37 H37        -2.3161    4.6240   59.0072 H       1  ZINC001004075025    0.0900
     38 H38        -1.1694    5.4189   57.8455 H       1  ZINC001004075025    0.0900
     39 H39        -2.8689    2.8571   57.3864 H       1  ZINC001004075025    0.1100
     40 H40        -3.4908    4.7743   55.9167 H       1  ZINC001004075025    0.0800
     41 H41        -1.7731    5.1221   55.6053 H       1  ZINC001004075025    0.0800
     42 H42        -2.7227    2.4649   54.8112 H       1  ZINC001004075025    0.4000
     43 H43        -4.7880    2.2249   53.3154 H       1  ZINC001004075025    0.1300
     44 H44        -5.3807    3.6371   50.6751 H       1  ZINC001004075025    0.0600
     45 H45        -6.4402    3.6228   52.1053 H       1  ZINC001004075025    0.0700
     46 H46        -4.8548    4.4284   52.1803 H       1  ZINC001004075025    0.0600
     47 H47        -5.5112    1.1450   50.5536 H       1  ZINC001004075025    0.0600
     48 H48        -5.0782    0.1608   51.9722 H       1  ZINC001004075025    0.0600
     49 H49        -6.5707    1.1307   51.9838 H       1  ZINC001004075025    0.0700
     50 H50        -0.1126    2.7843   51.5045 H       1  ZINC001004075025    0.2000
     51 H51        -0.0045    3.6069   56.4220 H       1  ZINC001004075025    0.0900
     52 H52        -0.6094    1.9713   56.9273 H       1  ZINC001004075025    0.0800
@<TRIPOS>BOND
     1     1     2    1
     2     1    28    1
     3     1    29    1
     4     1    30    1
     5     2     3    1
     6     2    31    1
     7     2    32    1
     8     3     4    1
     9     3    27    1
    10     3     5    1
    11     5     6    1
    12     5    33    1
    13     5    34    1
    14     6     7    1
    15     6    35    1
    16     6    36    1
    17     7     8    1
    18     7     9    1
    19     7    27    1
    20     9    10    2
    21     9    11   am
    22    11    26    1
    23    11    12    1
    24    12    13    1
    25    12    37    1
    26    12    38    1
    27    13    14    1
    28    13    26    1
    29    13    39    1
    30    14    15    1
    31    14    40    1
    32    14    41    1
    33    15    16   am
    34    15    42    1
    35    16    17    2
    36    16    18    1
    37    18    25    1
    38    18    19    2
    39    19    20    1
    40    19    23    1
    41    20    21    1
    42    20    22    1
    43    20    43    1
    44    21    44    1
    45    21    45    1
    46    21    46    1
    47    22    47    1
    48    22    48    1
    49    22    49    1
    50    23    24    1
    51    24    25    2
    52    25    50    1
    53    26    51    1
    54    26    52    1
@<TRIPOS>SUBSTRUCTURE
     1 ZINC001004075025        1 TEMP              0 ****  ****    0 ROOT


##########                                Name:    ZINC000572257265
##########                DOCK_Rotatable_Bonds:                  11
##########                         Heavy_Atoms:                  24
##########                    Molecular_Weight:             393.509
##########                DOCK_Rotatable_Bonds:                  11
##########                       Formal_Charge:          -0.0100002
##########                     HBond_Acceptors:                  11
##########                        HBond_Donors:                   3
##########                         Heavy_Atoms:                  24
##########                          Grid_Score:          -32.008133
##########                     Grid_vdw_energy:          -30.928640
##########                      Grid_es_energy:           -1.079493
##########           Internal_energy_repulsive:            8.843105

@<TRIPOS>MOLECULE
ZINC000572257265
 43 43 1 0 0
SMALL
USER_CHARGES


@<TRIPOS>ATOM
      1 C1        -13.7298   -0.4531   48.3253 C.3     1  ZINC000572257265   -0.1300
      2 S2        -13.5258   -0.1698   50.1054 S.3     1  ZINC000572257265   -0.2200
      3 C3        -13.2404    1.6189   50.2038 C.3     1  ZINC000572257265   -0.1300
      4 C4        -13.0399    2.0237   51.6656 C.3     1  ZINC000572257265    0.1500
      5 C5        -13.4549    3.4845   51.8519 C.3     1  ZINC000572257265   -0.1500
      6 O6        -13.8416    1.1901   52.5049 O.3     1  ZINC000572257265   -0.5400
      7 C7        -11.5661    1.8602   52.0426 C.3     1  ZINC000572257265    0.0900
      8 N8        -11.3188    0.4773   52.4578 N.am    1  ZINC000572257265   -1.1100
      9 S9        -10.1045    0.1399   53.5322 S.o2    1  ZINC000572257265    2.6900
     10 O10       -10.3276    0.9703   54.6635 O.2     1  ZINC000572257265   -0.9400
     11 O11       -10.0215   -1.2765   53.6119 O.2     1  ZINC000572257265   -0.9500
     12 C12        -8.5965    0.6865   52.8032 C.ar    1  ZINC000572257265   -0.6300
     13 C13        -7.6860   -0.2366   52.3238 C.ar    1  ZINC000572257265   -0.0400
     14 C14        -6.5028    0.1922   51.7519 C.ar    1  ZINC000572257265   -0.0400
     15 C15        -6.2303    1.5443   51.6591 C.ar    1  ZINC000572257265   -0.6300
     16 S16        -4.7218    2.0909   50.9307 S.o2    1  ZINC000572257265    2.7000
     17 O17        -3.7132    1.1946   51.3765 O.2     1  ZINC000572257265   -0.9400
     18 O18        -5.0013    2.3256   49.5574 O.2     1  ZINC000572257265   -0.9400
     19 N19        -4.3634    3.5654   51.5937 N.am    1  ZINC000572257265   -1.1200
     20 C20        -4.1646    3.6895   53.0399 C.3     1  ZINC000572257265    0.2200
     21 C21        -2.7422    3.4845   53.3590 C.1     1  ZINC000572257265    0.1900
     22 N22        -1.6446    3.3263   53.6052 N.1     1  ZINC000572257265   -0.3900
     23 C23        -7.1413    2.4675   52.1373 C.ar    1  ZINC000572257265   -0.0400
     24 C24        -8.3262    2.0387   52.7057 C.ar    1  ZINC000572257265   -0.0400
     25 H25       -12.8250   -0.1437   47.8021 H       1  ZINC000572257265    0.0800
     26 H26       -13.9099   -1.5128   48.1443 H       1  ZINC000572257265    0.1000
     27 H27       -14.5772    0.1270   47.9598 H       1  ZINC000572257265    0.0800
     28 H28       -12.3504    1.8770   49.6299 H       1  ZINC000572257265    0.0900
     29 H29       -14.1019    2.1473   49.7955 H       1  ZINC000572257265    0.0900
     30 H30       -14.5049    3.6010   51.5834 H       1  ZINC000572257265    0.0800
     31 H31       -13.3121    3.7729   52.8933 H       1  ZINC000572257265    0.0700
     32 H32       -12.8434    4.1204   51.2116 H       1  ZINC000572257265    0.0800
     33 H33       -14.7892    1.2403   52.3193 H       1  ZINC000572257265    0.3800
     34 H34       -10.9422    2.0981   51.1811 H       1  ZINC000572257265    0.0900
     35 H35       -11.3242    2.5349   52.8637 H       1  ZINC000572257265    0.0800
     36 H36       -11.8662   -0.2409   52.1035 H       1  ZINC000572257265    0.4300
     37 H37        -7.8990   -1.2929   52.3963 H       1  ZINC000572257265    0.1500
     38 H38        -5.7912   -0.5290   51.3781 H       1  ZINC000572257265    0.1500
     39 H39        -4.2851    4.3469   51.0246 H       1  ZINC000572257265    0.4300
     40 H40        -4.4701    4.6841   53.3646 H       1  ZINC000572257265    0.1100
     41 H41        -4.7643    2.9390   53.5548 H       1  ZINC000572257265    0.1300
     42 H42        -6.9285    3.5238   52.0644 H       1  ZINC000572257265    0.1600
     43 H43        -9.0380    2.7600   53.0793 H       1  ZINC000572257265    0.1500
@<TRIPOS>BOND
     1     1     2    1
     2     1    25    1
     3     1    26    1
     4     1    27    1
     5     2     3    1
     6     3     4    1
     7     3    28    1
     8     3    29    1
     9     4     5    1
    10     4     6    1
    11     4     7    1
    12     5    30    1
    13     5    31    1
    14     5    32    1
    15     6    33    1
    16     7     8    1
    17     7    34    1
    18     7    35    1
    19     8     9   am
    20     8    36    1
    21     9    10    2
    22     9    11    2
    23     9    12    1
    24    12    24   ar
    25    12    13   ar
    26    13    14   ar
    27    13    37    1
    28    14    15   ar
    29    14    38    1
    30    15    16    1
    31    15    23   ar
    32    16    17    2
    33    16    18    2
    34    16    19   am
    35    19    20    1
    36    19    39    1
    37    20    21    1
    38    20    40    1
    39    20    41    1
    40    21    22    3
    41    23    24   ar
    42    23    42    1
    43    24    43    1
@<TRIPOS>SUBSTRUCTURE
     1 ZINC000572257265        1 TEMP              0 ****  ****    0 ROOT


##########                                Name:    ZINC000637608314
##########                DOCK_Rotatable_Bonds:                   9
##########                         Heavy_Atoms:                  28
##########                    Molecular_Weight:             387.479
##########                DOCK_Rotatable_Bonds:                   9
##########                       Formal_Charge:           0.0499991
##########                     HBond_Acceptors:                   7
##########                        HBond_Donors:                   2
##########                         Heavy_Atoms:                  28
##########                          Grid_Score:          -31.977726
##########                     Grid_vdw_energy:          -30.567070
##########                      Grid_es_energy:           -1.410656
##########           Internal_energy_repulsive:           15.769594

@<TRIPOS>MOLECULE
ZINC000637608314
 57 59 1 0 0
SMALL
USER_CHARGES


@<TRIPOS>ATOM
      1 C1         -4.1427    2.4881   51.0275 C.3     1  ZINC000637608314   -0.1400
      2 C2         -5.2463    3.1889   51.8226 C.3     1  ZINC000637608314   -0.0400
      3 C3         -4.6681    3.7260   53.1333 C.3     1  ZINC000637608314   -0.1500
      4 C4         -5.8090    4.3496   50.9998 C.3     1  ZINC000637608314   -0.1500
      5 C5         -6.3486    2.2067   52.1249 C.2     1  ZINC000637608314    0.1900
      6 C6         -7.4329    2.6122   52.8263 C.2     1  ZINC000637608314   -0.2400
      7 C7         -8.4621    1.7038   53.1110 C.2     1  ZINC000637608314    0.0200
      8 C8         -8.3548    0.4162   52.6741 C.2     1  ZINC000637608314   -0.2400
      9 C9         -9.4469   -0.5804   52.9660 C.3     1  ZINC000637608314    0.2100
     10 N10       -10.7062   -0.1091   52.3846 N.am    1  ZINC000637608314   -0.7300
     11 C11       -11.8489   -0.1918   53.0945 C.2     1  ZINC000637608314    0.7100
     12 O12       -11.8347   -0.6590   54.2169 O.2     1  ZINC000637608314   -0.5900
     13 N13       -13.0072    0.2432   52.5602 N.am    1  ZINC000637608314   -0.6200
     14 C14       -14.2489    0.1548   53.3325 C.3     1  ZINC000637608314    0.2000
     15 C15       -14.2268    1.1787   54.4381 C.2     1  ZINC000637608314   -0.0400
     16 C16       -14.8208    1.0532   55.6385 C.2     1  ZINC000637608314   -0.1900
     17 C17       -14.5465    2.2394   56.3572 C.2     1  ZINC000637608314   -0.2200
     18 C18       -13.8012    3.0189   55.5531 C.2     1  ZINC000637608314   -0.0300
     19 O19       -13.6060    2.3688   54.3941 O.3     1  ZINC000637608314   -0.1700
     20 C20       -13.0245    0.8043   51.2071 C.3     1  ZINC000637608314    0.1300
     21 C21       -13.3779   -0.2951   50.2035 C.3     1  ZINC000637608314    0.0700
     22 H22       -12.6326   -1.0892   50.2475 H       1  ZINC000637608314    0.0900
     23 C23       -13.4312    0.2946   48.7778 C.3     1  ZINC000637608314   -0.1500
     24 C24       -14.6478   -0.4470   48.1597 C.3     1  ZINC000637608314   -0.1600
     25 C25       -15.5658   -0.5903   49.3996 C.3     1  ZINC000637608314    0.0500
     26 O26       -14.6736   -0.8277   50.5023 O.3     1  ZINC000637608314   -0.3800
     27 C27        -7.2153    0.0288   51.9483 C.2     1  ZINC000637608314    0.5300
     28 O28        -7.1067   -1.1203   51.5510 O.2     1  ZINC000637608314   -0.5400
     29 N29        -6.2461    0.9261   51.6860 N.am    1  ZINC000637608314   -0.6000
     30 H30        -3.7418    1.6612   51.6137 H       1  ZINC000637608314    0.0700
     31 H31        -4.5547    2.1055   50.0938 H       1  ZINC000637608314    0.0700
     32 H32        -3.3455    3.1985   50.8088 H       1  ZINC000637608314    0.0700
     33 H33        -3.8709    4.4364   52.9145 H       1  ZINC000637608314    0.0700
     34 H34        -5.4543    4.2254   53.6996 H       1  ZINC000637608314    0.0600
     35 H35        -4.2672    2.8991   53.7194 H       1  ZINC000637608314    0.0700
     36 H36        -6.2210    3.9669   50.0660 H       1  ZINC000637608314    0.0700
     37 H37        -6.5952    4.8488   51.5661 H       1  ZINC000637608314    0.0600
     38 H38        -5.0117    5.0600   50.7810 H       1  ZINC000637608314    0.0700
     39 H39        -7.5050    3.6347   53.1666 H       1  ZINC000637608314    0.1500
     40 H40        -9.3301    2.0201   53.6704 H       1  ZINC000637608314    0.1400
     41 H41        -9.1843   -1.5448   52.5311 H       1  ZINC000637608314    0.0800
     42 H42        -9.5622   -0.6874   54.0445 H       1  ZINC000637608314    0.0800
     43 H43       -10.7177    0.2625   51.4886 H       1  ZINC000637608314    0.4000
     44 H44       -15.0988    0.3459   52.6773 H       1  ZINC000637608314    0.1200
     45 H45       -14.3390   -0.8426   53.7628 H       1  ZINC000637608314    0.0900
     46 H46       -15.3971    0.2087   55.9862 H       1  ZINC000637608314    0.1500
     47 H47       -14.8728    2.4748   57.3594 H       1  ZINC000637608314    0.1500
     48 H48       -13.4211    3.9993   55.7991 H       1  ZINC000637608314    0.2000
     49 H49       -13.7689    1.5988   51.1527 H       1  ZINC000637608314    0.0800
     50 H50       -12.0415    1.2108   50.9696 H       1  ZINC000637608314    0.1000
     51 H51       -13.6073    1.3699   48.8091 H       1  ZINC000637608314    0.0800
     52 H52       -12.5177    0.0658   48.2289 H       1  ZINC000637608314    0.0900
     53 H53       -15.1237    0.1558   47.3860 H       1  ZINC000637608314    0.0800
     54 H54       -14.3570   -1.4230   47.7712 H       1  ZINC000637608314    0.0800
     55 H55       -16.1309    0.3279   49.5601 H       1  ZINC000637608314    0.0600
     56 H56       -16.2431   -1.4350   49.2733 H       1  ZINC000637608314    0.0800
     57 H57        -5.4624    0.6525   51.1843 H       1  ZINC000637608314    0.4100
@<TRIPOS>BOND
     1     1     2    1
     2     1    30    1
     3     1    31    1
     4     1    32    1
     5     2     3    1
     6     2     4    1
     7     2     5    1
     8     3    33    1
     9     3    34    1
    10     3    35    1
    11     4    36    1
    12     4    37    1
    13     4    38    1
    14     5    29    1
    15     5     6    2
    16     6     7    1
    17     6    39    1
    18     7     8    2
    19     7    40    1
    20     8     9    1
    21     8    27    1
    22     9    10    1
    23     9    41    1
    24     9    42    1
    25    10    11   am
    26    10    43    1
    27    11    12    2
    28    11    13   am
    29    13    14    1
    30    13    20    1
    31    14    15    1
    32    14    44    1
    33    14    45    1
    34    15    19    1
    35    15    16    2
    36    16    17    1
    37    16    46    1
    38    17    18    2
    39    17    47    1
    40    18    19    1
    41    18    48    1
    42    20    21    1
    43    20    49    1
    44    20    50    1
    45    21    22    1
    46    21    26    1
    47    21    23    1
    48    23    24    1
    49    23    51    1
    50    23    52    1
    51    24    25    1
    52    24    53    1
    53    24    54    1
    54    25    26    1
    55    25    55    1
    56    25    56    1
    57    27    28    2
    58    27    29   am
    59    29    57    1
@<TRIPOS>SUBSTRUCTURE
     1 ZINC000637608314        1 TEMP              0 ****  ****    0 ROOT


##########                                Name:    ZINC001087843226
##########                DOCK_Rotatable_Bonds:                   6
##########                         Heavy_Atoms:                  27
##########                    Molecular_Weight:             368.479
##########                DOCK_Rotatable_Bonds:                   6
##########                       Formal_Charge:        -4.47035e-07
##########                     HBond_Acceptors:                   6
##########                        HBond_Donors:                   1
##########                         Heavy_Atoms:                  27
##########                          Grid_Score:          -31.948755
##########                     Grid_vdw_energy:          -30.898310
##########                      Grid_es_energy:           -1.050446
##########           Internal_energy_repulsive:           29.666307

@<TRIPOS>MOLECULE
ZINC001087843226
 55 58 1 0 0
SMALL
USER_CHARGES


@<TRIPOS>ATOM
      1 C1        -13.6710    1.4485   53.5803 C.3     1  ZINC001087843226   -0.1500
      2 C2        -14.0261    0.6752   54.8518 C.3     1  ZINC001087843226   -0.1500
      3 C3        -12.7750    0.5160   55.7180 C.3     1  ZINC001087843226    0.0700
      4 H4        -12.4177    1.4953   56.0366 H       1  ZINC001087843226    0.1000
      5 C5        -11.6724   -0.2107   54.9194 C.3     1  ZINC001087843226    0.1300
      6 H6        -12.1068   -0.8031   54.1142 H       1  ZINC001087843226    0.1000
      7 N7        -10.7002    0.7480   54.3882 N.am    1  ZINC001087843226   -0.7200
      8 C8         -9.9586    0.4279   53.3094 C.2     1  ZINC001087843226    0.5600
      9 O9        -10.0952   -0.6567   52.7779 O.2     1  ZINC001087843226   -0.5300
     10 C10        -8.9787    1.3961   52.7722 C.ar    1  ZINC001087843226   -0.1400
     11 C11        -9.2786    2.7579   52.7585 C.ar    1  ZINC001087843226   -0.0800
     12 C12        -8.3600    3.6565   52.2560 C.ar    1  ZINC001087843226   -0.1300
     13 C13        -7.1470    3.2079   51.7683 C.ar    1  ZINC001087843226   -0.0400
     14 C14        -6.1496    4.1965   51.2214 C.3     1  ZINC001087843226   -0.1200
     15 C15        -6.8404    1.8557   51.7785 C.ar    1  ZINC001087843226   -0.1100
     16 C16        -7.7482    0.9479   52.2827 C.ar    1  ZINC001087843226   -0.0300
     17 C17        -7.1837   -0.4528   52.1819 C.3     1  ZINC001087843226   -0.0800
     18 C18        -6.0243   -0.3486   51.1683 C.3     1  ZINC001087843226   -0.1200
     19 C19        -5.5979    1.1298   51.3077 C.3     1  ZINC001087843226   -0.0800
     20 C20       -11.0172   -1.1291   55.9844 C.3     1  ZINC001087843226   -0.1400
     21 C21       -12.2402   -1.5307   56.8462 C.3     1  ZINC001087843226    0.0400
     22 N22       -13.0836   -0.3134   56.8973 N.3     1  ZINC001087843226   -0.5100
     23 C23       -14.5100   -0.6624   56.9366 C.3     1  ZINC001087843226    0.1100
     24 C24       -14.8102   -1.4061   58.2125 C.2     1  ZINC001087843226    0.0800
     25 N25       -14.7569   -0.8989   59.4078 N.2     1  ZINC001087843226   -0.2700
     26 O26       -15.1092   -1.9259   60.3209 O.3     1  ZINC001087843226    0.0300
     27 N27       -15.3732   -3.0816   59.5412 N.2     1  ZINC001087843226   -0.2800
     28 C28       -15.1982   -2.7581   58.2949 C.2     1  ZINC001087843226    0.0900
     29 C29       -15.3727   -3.6872   57.1213 C.3     1  ZINC001087843226   -0.0900
     30 H30       -14.5454    1.5024   52.9317 H       1  ZINC001087843226    0.0600
     31 H31       -13.3526    2.4568   53.8452 H       1  ZINC001087843226    0.0600
     32 H32       -12.8621    0.9376   53.0580 H       1  ZINC001087843226    0.0600
     33 H33       -14.7867    1.2218   55.4091 H       1  ZINC001087843226    0.0800
     34 H34       -14.4095   -0.3091   54.5831 H       1  ZINC001087843226    0.0700
     35 H35       -10.5904    1.6131   54.8131 H       1  ZINC001087843226    0.4000
     36 H36       -10.2266    3.1080   53.1394 H       1  ZINC001087843226    0.1300
     37 H37        -8.5893    4.7118   52.2434 H       1  ZINC001087843226    0.1300
     38 H38        -5.4959    4.5353   52.0251 H       1  ZINC001087843226    0.0800
     39 H39        -5.5528    3.7185   50.4447 H       1  ZINC001087843226    0.0700
     40 H40        -6.6788    5.0507   50.7991 H       1  ZINC001087843226    0.0700
     41 H41        -6.8099   -0.7807   53.1519 H       1  ZINC001087843226    0.0800
     42 H42        -7.9450   -1.1420   51.8164 H       1  ZINC001087843226    0.0900
     43 H43        -5.2063   -1.0136   51.4455 H       1  ZINC001087843226    0.0800
     44 H44        -6.3728   -0.5613   50.1577 H       1  ZINC001087843226    0.0700
     45 H45        -5.2769    1.5233   50.3432 H       1  ZINC001087843226    0.0800
     46 H46        -4.7975    1.2250   52.0414 H       1  ZINC001087843226    0.0800
     47 H47       -10.5631   -2.0041   55.5192 H       1  ZINC001087843226    0.0800
     48 H48       -10.2856   -0.5798   56.5767 H       1  ZINC001087843226    0.0800
     49 H49       -12.7831   -2.3506   56.3758 H       1  ZINC001087843226    0.0600
     50 H50       -11.9212   -1.8120   57.8497 H       1  ZINC001087843226    0.0800
     51 H51       -15.1080    0.2480   56.8974 H       1  ZINC001087843226    0.1200
     52 H52       -14.7531   -1.2940   56.0821 H       1  ZINC001087843226    0.0700
     53 H53       -16.3759   -3.5700   56.7112 H       1  ZINC001087843226    0.1000
     54 H54       -14.6364   -3.4462   56.3545 H       1  ZINC001087843226    0.0900
     55 H55       -15.2322   -4.7171   57.4492 H       1  ZINC001087843226    0.0900
@<TRIPOS>BOND
     1     1     2    1
     2     1    30    1
     3     1    31    1
     4     1    32    1
     5     2     3    1
     6     2    33    1
     7     2    34    1
     8     3     4    1
     9     3    22    1
    10     3     5    1
    11     5     6    1
    12     5     7    1
    13     5    20    1
    14     7     8   am
    15     7    35    1
    16     8     9    2
    17     8    10    1
    18    10    16   ar
    19    10    11   ar
    20    11    12   ar
    21    11    36    1
    22    12    13   ar
    23    12    37    1
    24    13    14    1
    25    13    15   ar
    26    14    38    1
    27    14    39    1
    28    14    40    1
    29    15    19    1
    30    15    16   ar
    31    16    17    1
    32    17    18    1
    33    17    41    1
    34    17    42    1
    35    18    19    1
    36    18    43    1
    37    18    44    1
    38    19    45    1
    39    19    46    1
    40    20    21    1
    41    20    47    1
    42    20    48    1
    43    21    22    1
    44    21    49    1
    45    21    50    1
    46    22    23    1
    47    23    24    1
    48    23    51    1
    49    23    52    1
    50    24    28    1
    51    24    25    2
    52    25    26    1
    53    26    27    1
    54    27    28    2
    55    28    29    1
    56    29    53    1
    57    29    54    1
    58    29    55    1
@<TRIPOS>SUBSTRUCTURE
     1 ZINC001087843226        1 TEMP              0 ****  ****    0 ROOT


##########                                Name:    ZINC000066361645
##########                DOCK_Rotatable_Bonds:                   8
##########                         Heavy_Atoms:                  27
##########                    Molecular_Weight:             392.519
##########                DOCK_Rotatable_Bonds:                   8
##########                       Formal_Charge:           0.0100004
##########                     HBond_Acceptors:                   7
##########                        HBond_Donors:                   2
##########                         Heavy_Atoms:                  27
##########                          Grid_Score:          -31.939810
##########                     Grid_vdw_energy:          -31.258423
##########                      Grid_es_energy:           -0.681387
##########           Internal_energy_repulsive:           11.142576

@<TRIPOS>MOLECULE
ZINC000066361645
 55 57 1 0 0
SMALL
USER_CHARGES


@<TRIPOS>ATOM
      1 C1         -0.1320    5.7849   54.3447 C.3     1  ZINC000066361645   -0.1400
      2 S2         -1.2791    4.3797   54.3512 S.3     1  ZINC000066361645   -0.1100
      3 C3         -0.8547    3.5148   52.8761 C.ar    1  ZINC000066361645   -0.1200
      4 C4          0.4425    3.5677   52.3886 C.ar    1  ZINC000066361645   -0.1100
      5 C5          0.7780    2.8864   51.2276 C.ar    1  ZINC000066361645    0.0500
      6 C6         -0.1864    2.1483   50.5522 C.ar    1  ZINC000066361645    0.0700
      7 C7         -1.4851    2.0955   51.0371 C.ar    1  ZINC000066361645   -0.1100
      8 C8         -1.8213    2.7713   52.1997 C.ar    1  ZINC000066361645    0.1800
      9 N9         -3.1352    2.7166   52.6890 N.am    1  ZINC000066361645   -0.6600
     10 C10        -4.0892    3.4992   52.1472 C.2     1  ZINC000066361645    0.5100
     11 O11        -3.8121    4.2510   51.2364 O.2     1  ZINC000066361645   -0.5000
     12 C12        -5.5004    3.4405   52.6728 C.3     1  ZINC000066361645   -0.1500
     13 C13        -6.1857    2.1749   52.1537 C.3     1  ZINC000066361645    0.1600
     14 H14        -5.5814    1.3041   52.4080 H       1  ZINC000066361645    0.1000
     15 C15        -6.3377    2.2640   50.6339 C.3     1  ZINC000066361645   -0.1600
     16 N16        -7.5086    2.0481   52.7702 N.am    1  ZINC000066361645   -0.7200
     17 C17        -8.0060    0.8279   53.0535 C.2     1  ZINC000066361645    0.5300
     18 O18        -7.3577   -0.1651   52.7993 O.2     1  ZINC000066361645   -0.5400
     19 C19        -9.3675    0.6974   53.6860 C.3     1  ZINC000066361645   -0.1100
     20 C20       -10.2684    1.8328   53.1959 C.3     1  ZINC000066361645   -0.1100
     21 C21       -11.6508    1.7004   53.8381 C.3     1  ZINC000066361645   -0.1200
     22 C22       -12.2675    0.3556   53.4481 C.3     1  ZINC000066361645   -0.1200
     23 C23       -11.3666   -0.7799   53.9382 C.3     1  ZINC000066361645   -0.1200
     24 C24        -9.9843   -0.6474   53.2960 C.3     1  ZINC000066361645   -0.1000
     25 O25         0.1279    1.4670   49.4149 O.3     1  ZINC000066361645   -0.3000
     26 C26         1.3408    1.8427   48.7537 C.3     1  ZINC000066361645    0.0200
     27 C27         2.4478    1.9583   49.8103 C.3     1  ZINC000066361645    0.0200
     28 O28         2.0562    2.9533   50.7623 O.3     1  ZINC000066361645   -0.3100
     29 H29         0.8939    5.4166   54.3555 H       1  ZINC000066361645    0.0900
     30 H30        -0.2942    6.3823   53.4475 H       1  ZINC000066361645    0.0900
     31 H31        -0.3063    6.4004   55.2273 H       1  ZINC000066361645    0.1100
     32 H32         1.1928    4.1403   52.9137 H       1  ZINC000066361645    0.1400
     33 H33        -2.2345    1.5238   50.5101 H       1  ZINC000066361645    0.1600
     34 H34        -3.3568    2.1155   53.4173 H       1  ZINC000066361645    0.4100
     35 H35        -5.4818    3.4228   53.7625 H       1  ZINC000066361645    0.1000
     36 H36        -6.0514    4.3174   52.3330 H       1  ZINC000066361645    0.1200
     37 H37        -6.9420    3.1347   50.3796 H       1  ZINC000066361645    0.0600
     38 H38        -5.3535    2.3583   50.1752 H       1  ZINC000066361645    0.0700
     39 H39        -6.8260    1.3623   50.2641 H       1  ZINC000066361645    0.0700
     40 H40        -8.0266    2.8423   52.9746 H       1  ZINC000066361645    0.4000
     41 H41        -9.2713    0.7522   54.7703 H       1  ZINC000066361645    0.1000
     42 H42        -9.8291    2.7909   53.4737 H       1  ZINC000066361645    0.0600
     43 H43       -10.3648    1.7781   52.1116 H       1  ZINC000066361645    0.0700
     44 H44       -11.5545    1.7552   54.9224 H       1  ZINC000066361645    0.0600
     45 H45       -12.2927    2.5093   53.4890 H       1  ZINC000066361645    0.0700
     46 H46       -13.2524    0.2613   53.9057 H       1  ZINC000066361645    0.0600
     47 H47       -12.3638    0.3007   52.3639 H       1  ZINC000066361645    0.0600
     48 H48       -11.2704   -0.7250   55.0226 H       1  ZINC000066361645    0.0600
     49 H49       -11.8060   -1.7380   53.6605 H       1  ZINC000066361645    0.0700
     50 H50       -10.0806   -0.7022   52.2117 H       1  ZINC000066361645    0.0700
     51 H51        -9.3425   -1.4563   53.6452 H       1  ZINC000066361645    0.0700
     52 H52         1.6105    1.0826   48.0205 H       1  ZINC000066361645    0.1300
     53 H53         1.2059    2.8030   48.2559 H       1  ZINC000066361645    0.0800
     54 H54         2.5781    0.9999   50.3127 H       1  ZINC000066361645    0.0800
     55 H55         3.3822    2.2538   49.3329 H       1  ZINC000066361645    0.1200
@<TRIPOS>BOND
     1     1     2    1
     2     1    29    1
     3     1    30    1
     4     1    31    1
     5     2     3    1
     6     3     8   ar
     7     3     4   ar
     8     4     5   ar
     9     4    32    1
    10     5    28    1
    11     5     6   ar
    12     6     7   ar
    13     6    25    1
    14     7     8   ar
    15     7    33    1
    16     8     9    1
    17     9    10   am
    18     9    34    1
    19    10    11    2
    20    10    12    1
    21    12    13    1
    22    12    35    1
    23    12    36    1
    24    13    14    1
    25    13    15    1
    26    13    16    1
    27    15    37    1
    28    15    38    1
    29    15    39    1
    30    16    17   am
    31    16    40    1
    32    17    18    2
    33    17    19    1
    34    19    24    1
    35    19    20    1
    36    19    41    1
    37    20    21    1
    38    20    42    1
    39    20    43    1
    40    21    22    1
    41    21    44    1
    42    21    45    1
    43    22    23    1
    44    22    46    1
    45    22    47    1
    46    23    24    1
    47    23    48    1
    48    23    49    1
    49    24    50    1
    50    24    51    1
    51    25    26    1
    52    26    27    1
    53    26    52    1
    54    26    53    1
    55    27    28    1
    56    27    54    1
    57    27    55    1
@<TRIPOS>SUBSTRUCTURE
     1 ZINC000066361645        1 TEMP              0 ****  ****    0 ROOT


##########                                Name:    ZINC000672622940
##########                DOCK_Rotatable_Bonds:                   7
##########                         Heavy_Atoms:                  30
##########                    Molecular_Weight:             416.523
##########                DOCK_Rotatable_Bonds:                   7
##########                       Formal_Charge:          -0.0100002
##########                     HBond_Acceptors:                   9
##########                        HBond_Donors:                   1
##########                         Heavy_Atoms:                  30
##########                          Grid_Score:          -31.904839
##########                     Grid_vdw_energy:          -30.767279
##########                      Grid_es_energy:           -1.137560
##########           Internal_energy_repulsive:           26.654858

@<TRIPOS>MOLECULE
ZINC000672622940
 62 65 1 0 0
SMALL
USER_CHARGES


@<TRIPOS>ATOM
      1 C1        -13.5804    1.0453   58.9710 C.3     1  ZINC000672622940    0.0800
      2 N2        -12.6559    0.4495   58.0033 N.am    1  ZINC000672622940   -0.6200
      3 C3        -12.2494   -0.9509   58.1449 C.3     1  ZINC000672622940    0.0700
      4 C4        -12.1793    1.1897   56.9827 C.2     1  ZINC000672622940    0.5200
      5 O5        -12.5147    2.3494   56.8664 O.2     1  ZINC000672622940   -0.5300
      6 C6        -11.2297    0.5762   55.9863 C.3     1  ZINC000672622940   -0.1000
      7 H7        -10.4798   -0.0130   56.5140 H       1  ZINC000672622940    0.1000
      8 C8        -12.0087   -0.3287   55.0296 C.3     1  ZINC000672622940   -0.1300
      9 C9        -11.0446   -0.9515   54.0179 C.3     1  ZINC000672622940   -0.1100
     10 C10       -10.3540    0.1578   53.2220 C.3     1  ZINC000672622940   -0.1300
     11 C11        -9.5750    1.0627   54.1786 C.3     1  ZINC000672622940    0.1400
     12 H12        -8.8251    0.4735   54.7064 H       1  ZINC000672622940    0.1000
     13 N13        -8.9137    2.1248   53.4164 N.am    1  ZINC000672622940   -0.6900
     14 C14        -7.7310    2.6179   53.8344 C.2     1  ZINC000672622940    0.5100
     15 O15        -7.2132    2.1810   54.8412 O.2     1  ZINC000672622940   -0.5100
     16 C16        -7.0573    3.7026   53.0579 C.2     1  ZINC000672622940    0.5100
     17 O17        -7.1405    4.8553   53.4281 O.2     1  ZINC000672622940   -0.5200
     18 N18        -6.3573    3.4007   51.9464 N.am    1  ZINC000672622940   -0.5800
     19 C19        -5.6845    4.4553   51.1759 C.3     1  ZINC000672622940    0.0700
     20 C20        -4.2099    4.0765   51.0049 C.3     1  ZINC000672622940   -0.1200
     21 C21        -4.1146    2.6831   50.3794 C.3     1  ZINC000672622940    0.0000
     22 C22        -2.6656    2.3211   50.1783 C.2     1  ZINC000672622940    0.2000
     23 N23        -2.1701    1.6349   49.1850 N.2     1  ZINC000672622940   -0.2800
     24 N24        -0.8984    1.5162   49.3329 N.2     1  ZINC000672622940   -0.2800
     25 C25        -0.5252    2.1231   50.4283 C.2     1  ZINC000672622940    0.1500
     26 C26         0.6885    2.4439   51.2735 C.3     1  ZINC000672622940   -0.0400
     27 C27         0.2160    3.5878   52.1998 C.3     1  ZINC000672622940   -0.1300
     28 C28        -1.3092    3.3497   52.2435 C.3     1  ZINC000672622940    0.1000
     29 N29        -1.6333    2.6529   50.9927 N.pl3   1  ZINC000672622940   -0.4900
     30 C30        -4.7718    1.6592   51.3079 C.3     1  ZINC000672622940   -0.1200
     31 C31        -6.2475    2.0098   51.4857 C.3     1  ZINC000672622940    0.1100
     32 C32       -10.5390    1.6854   55.1903 C.3     1  ZINC000672622940   -0.1100
     33 H33       -13.0138    1.4830   59.7929 H       1  ZINC000672622940    0.0600
     34 H34       -14.1686    1.8215   58.4813 H       1  ZINC000672622940    0.0800
     35 H35       -14.2468    0.2748   59.3588 H       1  ZINC000672622940    0.0700
     36 H36       -12.9445   -1.5880   57.5982 H       1  ZINC000672622940    0.0600
     37 H37       -11.2447   -1.0799   57.7425 H       1  ZINC000672622940    0.0800
     38 H38       -12.2566   -1.2263   59.1995 H       1  ZINC000672622940    0.0700
     39 H39       -12.5007   -1.1189   55.5967 H       1  ZINC000672622940    0.0800
     40 H40       -12.7586    0.2606   54.5017 H       1  ZINC000672622940    0.0700
     41 H41       -10.2947   -1.5407   54.5457 H       1  ZINC000672622940    0.0700
     42 H42       -11.5996   -1.5961   53.3364 H       1  ZINC000672622940    0.0700
     43 H43        -9.6671   -0.2859   52.5012 H       1  ZINC000672622940    0.0700
     44 H44       -11.1038    0.7471   52.6942 H       1  ZINC000672622940    0.0700
     45 H45        -9.3270    2.4732   52.6111 H       1  ZINC000672622940    0.4100
     46 H46        -6.1538    4.5482   50.1965 H       1  ZINC000672622940    0.0700
     47 H47        -5.7588    5.4023   51.7104 H       1  ZINC000672622940    0.1400
     48 H48        -3.7212    4.8016   50.3542 H       1  ZINC000672622940    0.0800
     49 H49        -3.7202    4.0725   51.9787 H       1  ZINC000672622940    0.0800
     50 H50        -4.6263    2.6812   49.4170 H       1  ZINC000672622940    0.0900
     51 H51         0.9844    1.5750   51.8613 H       1  ZINC000672622940    0.1000
     52 H52         1.5133    2.7787   50.6445 H       1  ZINC000672622940    0.1000
     53 H53         0.6544    3.4914   53.1931 H       1  ZINC000672622940    0.1100
     54 H54         0.4464    4.5610   51.7661 H       1  ZINC000672622940    0.0900
     55 H55        -1.5695    2.7313   53.1026 H       1  ZINC000672622940    0.1000
     56 H56        -1.8380    4.3017   52.2893 H       1  ZINC000672622940    0.1000
     57 H57        -4.6829    0.6637   50.8729 H       1  ZINC000672622940    0.0800
     58 H58        -4.2766    1.6780   52.2787 H       1  ZINC000672622940    0.0800
     59 H59        -6.6953    1.3430   52.2226 H       1  ZINC000672622940    0.1000
     60 H60        -6.7655    1.9048   50.5324 H       1  ZINC000672622940    0.0800
     61 H61       -11.2890    2.2748   54.6625 H       1  ZINC000672622940    0.0800
     62 H62        -9.9840    2.3302   55.8718 H       1  ZINC000672622940    0.0800
@<TRIPOS>BOND
     1     1     2    1
     2     1    33    1
     3     1    34    1
     4     1    35    1
     5     2     3    1
     6     2     4   am
     7     3    36    1
     8     3    37    1
     9     3    38    1
    10     4     5    2
    11     4     6    1
    12     6     7    1
    13     6    32    1
    14     6     8    1
    15     8     9    1
    16     8    39    1
    17     8    40    1
    18     9    10    1
    19     9    41    1
    20     9    42    1
    21    10    11    1
    22    10    43    1
    23    10    44    1
    24    11    12    1
    25    11    13    1
    26    11    32    1
    27    13    14   am
    28    13    45    1
    29    14    15    2
    30    14    16    1
    31    16    17    2
    32    16    18   am
    33    18    31    1
    34    18    19    1
    35    19    20    1
    36    19    46    1
    37    19    47    1
    38    20    21    1
    39    20    48    1
    40    20    49    1
    41    21    22    1
    42    21    30    1
    43    21    50    1
    44    22    29    1
    45    22    23    2
    46    23    24    1
    47    24    25    2
    48    25    29    1
    49    25    26    1
    50    26    27    1
    51    26    51    1
    52    26    52    1
    53    27    28    1
    54    27    53    1
    55    27    54    1
    56    28    29    1
    57    28    55    1
    58    28    56    1
    59    30    31    1
    60    30    57    1
    61    30    58    1
    62    31    59    1
    63    31    60    1
    64    32    61    1
    65    32    62    1
@<TRIPOS>SUBSTRUCTURE
     1 ZINC000672622940        1 TEMP              0 ****  ****    0 ROOT


##########                                Name:    ZINC000826435081
##########                DOCK_Rotatable_Bonds:                   7
##########                         Heavy_Atoms:                  28
##########                    Molecular_Weight:             388.361
##########                DOCK_Rotatable_Bonds:                   7
##########                       Formal_Charge:           0.0099996
##########                     HBond_Acceptors:                  12
##########                        HBond_Donors:                   3
##########                         Heavy_Atoms:                  28
##########                          Grid_Score:          -31.893696
##########                     Grid_vdw_energy:          -33.184757
##########                      Grid_es_energy:            1.291062
##########           Internal_energy_repulsive:            6.385911

@<TRIPOS>MOLECULE
ZINC000826435081
 45 48 1 0 0
SMALL
USER_CHARGES


@<TRIPOS>ATOM
      1 O1         -8.4515    1.4858   52.1875 O.2     1  ZINC000826435081   -0.5700
      2 C2         -8.1309    0.3232   52.3433 C.2     1  ZINC000826435081    0.7200
      3 N3         -9.0094   -0.5534   52.8688 N.am    1  ZINC000826435081   -0.7300
      4 C4        -10.3485   -0.1044   53.2579 C.3     1  ZINC000826435081    0.1500
      5 C5        -10.9588   -1.1090   54.2373 C.3     1  ZINC000826435081    0.0400
      6 H6        -10.9071   -2.1108   53.8109 H       1  ZINC000826435081    0.0800
      7 C7        -12.4213   -0.7407   54.5032 C.3     1  ZINC000826435081    0.0300
      8 O8        -12.9514   -1.6162   55.5030 O.3     1  ZINC000826435081   -0.3800
      9 C9        -12.2270   -1.5822   56.7364 C.3     1  ZINC000826435081    0.0200
     10 C10       -10.7645   -1.9505   56.4704 C.3     1  ZINC000826435081    0.0200
     11 O11       -10.2335   -1.0761   55.4701 O.3     1  ZINC000826435081   -0.3700
     12 N12        -6.8990   -0.0899   51.9853 N.am    1  ZINC000826435081   -0.6400
     13 C13        -5.9856    0.8215   51.4390 C.2     1  ZINC000826435081    0.3300
     14 N14        -4.7278    0.9539   51.7892 N.2     1  ZINC000826435081   -0.2800
     15 N15        -4.1605    1.9693   51.0086 N.pl3   1  ZINC000826435081   -0.3300
     16 C16        -2.8362    2.4163   51.0753 C.ar    1  ZINC000826435081    0.2200
     17 C17        -1.8358    1.7320   50.4012 C.ar    1  ZINC000826435081   -0.1300
     18 C18        -0.5281    2.1738   50.4674 C.ar    1  ZINC000826435081   -0.0500
     19 C19        -0.2073    3.2990   51.2050 C.ar    1  ZINC000826435081   -0.1500
     20 C20        -1.1938    3.9921   51.8826 C.ar    1  ZINC000826435081    0.1500
     21 F21        -0.8764    5.0909   52.6016 F       1  ZINC000826435081   -0.1100
     22 C22        -2.5174    3.5586   51.8175 C.ar    1  ZINC000826435081   -0.0500
     23 C23        -3.5803    4.2975   52.5420 C.2     1  ZINC000826435081    0.2100
     24 N24        -3.9424    4.1262   53.7982 N.2     1  ZINC000826435081   -0.2800
     25 N25        -4.8959    4.9558   54.0502 N.pl3   1  ZINC000826435081   -0.2300
     26 N26        -5.1494    5.6471   52.9943 N.2     1  ZINC000826435081   -0.0500
     27 N27        -4.3559    5.2737   52.0486 N.2     1  ZINC000826435081   -0.2300
     28 C28        -5.1228    2.4433   50.1757 C.2     1  ZINC000826435081    0.0700
     29 C29        -6.2567    1.7470   50.4176 C.2     1  ZINC000826435081   -0.2400
     30 H30        -8.7551   -1.4817   52.9894 H       1  ZINC000826435081    0.4000
     31 H31       -10.2795    0.8729   53.7357 H       1  ZINC000826435081    0.0800
     32 H32       -10.9792   -0.0318   52.3718 H       1  ZINC000826435081    0.0900
     33 H33       -12.4795    0.2898   54.8535 H       1  ZINC000826435081    0.0700
     34 H34       -12.9968   -0.8471   53.5837 H       1  ZINC000826435081    0.1100
     35 H35       -12.2786   -0.5800   57.1617 H       1  ZINC000826435081    0.0600
     36 H36       -12.6617   -2.2980   57.4341 H       1  ZINC000826435081    0.1100
     37 H37       -10.1890   -1.8441   57.3900 H       1  ZINC000826435081    0.1100
     38 H38       -10.7062   -2.9810   56.1202 H       1  ZINC000826435081    0.0600
     39 H39        -6.6446   -1.0181   52.1059 H       1  ZINC000826435081    0.4100
     40 H40        -2.0793    0.8522   49.8240 H       1  ZINC000826435081    0.1500
     41 H41         0.2474    1.6375   49.9407 H       1  ZINC000826435081    0.1500
     42 H42         0.8173    3.6373   51.2522 H       1  ZINC000826435081    0.1500
     43 H43        -5.3511    5.0453   54.9021 H       1  ZINC000826435081    0.4800
     44 H44        -5.0029    3.2316   49.4473 H       1  ZINC000826435081    0.1800
     45 H45        -7.2049    1.8836   49.9191 H       1  ZINC000826435081    0.1800
@<TRIPOS>BOND
     1     1     2    2
     2     2     3   am
     3     2    12   am
     4     3     4    1
     5     3    30    1
     6     4     5    1
     7     4    31    1
     8     4    32    1
     9     5     6    1
    10     5    11    1
    11     5     7    1
    12     7     8    1
    13     7    33    1
    14     7    34    1
    15     8     9    1
    16     9    10    1
    17     9    35    1
    18     9    36    1
    19    10    11    1
    20    10    37    1
    21    10    38    1
    22    12    13    1
    23    12    39    1
    24    13    29    1
    25    13    14    2
    26    14    15    1
    27    15    16    1
    28    15    28    1
    29    16    22   ar
    30    16    17   ar
    31    17    18   ar
    32    17    40    1
    33    18    19   ar
    34    18    41    1
    35    19    20   ar
    36    19    42    1
    37    20    21    1
    38    20    22   ar
    39    22    23    1
    40    23    27    1
    41    23    24    2
    42    24    25    1
    43    25    26    1
    44    25    43    1
    45    26    27    2
    46    28    29    2
    47    28    44    1
    48    29    45    1
@<TRIPOS>SUBSTRUCTURE
     1 ZINC000826435081        1 TEMP              0 ****  ****    0 ROOT


##########                                Name:    ZINC000668548901
##########                DOCK_Rotatable_Bonds:                   9
##########                         Heavy_Atoms:                  26
##########                    Molecular_Weight:             374.464
##########                DOCK_Rotatable_Bonds:                   9
##########                       Formal_Charge:         3.53903e-07
##########                     HBond_Acceptors:                   8
##########                        HBond_Donors:                   3
##########                         Heavy_Atoms:                  26
##########                          Grid_Score:          -31.884663
##########                     Grid_vdw_energy:          -32.360188
##########                      Grid_es_energy:            0.475524
##########           Internal_energy_repulsive:           11.812836

@<TRIPOS>MOLECULE
ZINC000668548901
 48 50 1 0 0
SMALL
USER_CHARGES


@<TRIPOS>ATOM
      1 O1         -1.9870    3.0458   52.3696 O.2     1  ZINC000668548901   -0.5700
      2 C2         -1.6623    2.8857   51.2089 C.2     1  ZINC000668548901    0.7100
      3 N3         -2.5866    2.5341   50.2930 N.am    1  ZINC000668548901   -0.6800
      4 C4         -3.9151    2.3483   50.6781 C.ar    1  ZINC000668548901    0.2200
      5 C5         -4.8372    3.3927   50.5926 C.ar    1  ZINC000668548901   -0.1700
      6 C6         -6.1412    3.1733   50.9818 C.ar    1  ZINC000668548901    0.1200
      7 N7         -6.5255    1.9935   51.4322 N.ar    1  ZINC000668548901   -0.4300
      8 C8         -5.6827    0.9749   51.5297 C.ar    1  ZINC000668548901    0.1100
      9 S9         -6.2559   -0.5762   52.1381 S.3     1  ZINC000668548901    0.0900
     10 C10        -7.8737   -0.1984   52.7253 C.ar    1  ZINC000668548901    0.0900
     11 C11        -8.0506    0.8306   53.6445 C.ar    1  ZINC000668548901   -0.1500
     12 C12        -9.3262    1.1168   54.0967 C.ar    1  ZINC000668548901   -0.0700
     13 C13       -10.3860    0.3614   53.6125 C.ar    1  ZINC000668548901   -0.1700
     14 C14       -10.1380   -0.6458   52.7009 C.ar    1  ZINC000668548901    0.1000
     15 N15        -8.9113   -0.8932   52.2833 N.ar    1  ZINC000668548901   -0.4200
     16 C16        -4.3543    1.1162   51.1512 C.ar    1  ZINC000668548901   -0.1800
     17 N17        -0.3794    3.0651   50.8371 N.am    1  ZINC000668548901   -0.7200
     18 C18         0.6251    3.4472   51.8326 C.3     1  ZINC000668548901    0.1700
     19 H19         0.3653    3.0106   52.7970 H       1  ZINC000668548901    0.1000
     20 C20         0.6657    4.9716   51.9570 C.3     1  ZINC000668548901    0.0600
     21 O21         1.1767    5.5349   50.7473 O.3     1  ZINC000668548901   -0.5700
     22 C22         1.9985    2.9346   51.3940 C.3     1  ZINC000668548901   -0.1300
     23 H23         2.2165    3.2925   50.3879 H       1  ZINC000668548901    0.1000
     24 C24         2.0003    1.4029   51.4043 C.3     1  ZINC000668548901   -0.1200
     25 C25         3.4012    0.9025   51.0394 C.3     1  ZINC000668548901   -0.1600
     26 C26         4.4169    1.4913   52.0220 C.3     1  ZINC000668548901    0.0600
     27 O27         4.3416    2.9179   51.9851 O.3     1  ZINC000668548901   -0.3800
     28 C28         3.0684    3.4462   52.3621 C.3     1  ZINC000668548901    0.0700
     29 H29        -2.3283    2.4103   49.3663 H       1  ZINC000668548901    0.4100
     30 H30        -4.5323    4.3619   50.2260 H       1  ZINC000668548901    0.1500
     31 H31        -6.8586    3.9782   50.9175 H       1  ZINC000668548901    0.1600
     32 H32        -7.2036    1.3982   54.0006 H       1  ZINC000668548901    0.1400
     33 H33        -9.4941    1.9097   54.8106 H       1  ZINC000668548901    0.1400
     34 H34       -11.3940    0.5593   53.9459 H       1  ZINC000668548901    0.1400
     35 H35       -10.9592   -1.2359   52.3221 H       1  ZINC000668548901    0.1600
     36 H36        -3.6700    0.2846   51.2316 H       1  ZINC000668548901    0.1400
     37 H37        -0.1212    2.9412   49.9103 H       1  ZINC000668548901    0.4000
     38 H38        -0.3413    5.3484   52.1364 H       1  ZINC000668548901    0.0500
     39 H39         1.3117    5.2511   52.7893 H       1  ZINC000668548901    0.0600
     40 H40         0.6501    5.3270   49.9634 H       1  ZINC000668548901    0.3800
     41 H41         1.7325    1.0445   52.3983 H       1  ZINC000668548901    0.0700
     42 H42         1.2794    1.0326   50.6753 H       1  ZINC000668548901    0.0700
     43 H43         3.4262   -0.1857   51.0982 H       1  ZINC000668548901    0.0800
     44 H44         3.6488    1.2192   50.0263 H       1  ZINC000668548901    0.0700
     45 H45         4.1928    1.1414   53.0297 H       1  ZINC000668548901    0.0500
     46 H46         5.4209    1.1728   51.7414 H       1  ZINC000668548901    0.1000
     47 H47         3.1020    4.5351   52.3268 H       1  ZINC000668548901    0.1000
     48 H48         2.8258    3.1224   53.3741 H       1  ZINC000668548901    0.0500
@<TRIPOS>BOND
     1     1     2    2
     2     2     3   am
     3     2    17   am
     4     3     4    1
     5     3    29    1
     6     4    16   ar
     7     4     5   ar
     8     5     6   ar
     9     5    30    1
    10     6     7   ar
    11     6    31    1
    12     7     8   ar
    13     8     9    1
    14     8    16   ar
    15     9    10    1
    16    10    15   ar
    17    10    11   ar
    18    11    12   ar
    19    11    32    1
    20    12    13   ar
    21    12    33    1
    22    13    14   ar
    23    13    34    1
    24    14    15   ar
    25    14    35    1
    26    16    36    1
    27    17    18    1
    28    17    37    1
    29    18    19    1
    30    18    20    1
    31    18    22    1
    32    20    21    1
    33    20    38    1
    34    20    39    1
    35    21    40    1
    36    22    23    1
    37    22    28    1
    38    22    24    1
    39    24    25    1
    40    24    41    1
    41    24    42    1
    42    25    26    1
    43    25    43    1
    44    25    44    1
    45    26    27    1
    46    26    45    1
    47    26    46    1
    48    27    28    1
    49    28    47    1
    50    28    48    1
@<TRIPOS>SUBSTRUCTURE
     1 ZINC000668548901        1 TEMP              0 ****  ****    0 ROOT


##########                                Name:    ZINC000742270208
##########                DOCK_Rotatable_Bonds:                   5
##########                         Heavy_Atoms:                  25
##########                    Molecular_Weight:             376.328
##########                DOCK_Rotatable_Bonds:                   5
##########                       Formal_Charge:                0.02
##########                     HBond_Acceptors:                   9
##########                        HBond_Donors:                   0
##########                         Heavy_Atoms:                  25
##########                          Grid_Score:          -31.882416
##########                     Grid_vdw_energy:          -30.660954
##########                      Grid_es_energy:           -1.221461
##########           Internal_energy_repulsive:           12.877734

@<TRIPOS>MOLECULE
ZINC000742270208
 37 38 1 0 0
SMALL
USER_CHARGES


@<TRIPOS>ATOM
      1 C1        -11.7877    0.0106   52.9988 C.3     1  ZINC000742270208   -0.1400
      2 C2        -10.4739    0.7646   53.2148 C.3     1  ZINC000742270208   -0.1400
      3 C3        -10.3329    1.1301   54.6938 C.3     1  ZINC000742270208   -0.1400
      4 C4         -9.3188   -0.1103   52.8012 C.2     1  ZINC000742270208    0.4000
      5 O5         -9.4209   -1.3171   52.8597 O.2     1  ZINC000742270208   -0.4300
      6 C6         -8.0667    0.5000   52.3263 C.ar    1  ZINC000742270208   -0.1000
      7 C7         -7.0420   -0.3038   51.8168 C.ar    1  ZINC000742270208   -0.0900
      8 C8         -5.8717    0.2755   51.3738 C.ar    1  ZINC000742270208   -0.0200
      9 C9         -5.7097    1.6488   51.4327 C.ar    1  ZINC000742270208   -0.6800
     10 S10        -4.2106    2.3795   50.8641 S.o2    1  ZINC000742270208    2.6600
     11 O11        -4.1654    2.1622   49.4605 O.2     1  ZINC000742270208   -0.9300
     12 O12        -4.1449    3.6709   51.4533 O.2     1  ZINC000742270208   -0.9000
     13 O13        -3.0634    1.5763   51.4603 O.3     1  ZINC000742270208   -0.6400
     14 C14        -1.8527    2.1892   51.3686 C.ar    1  ZINC000742270208    0.0500
     15 C15        -1.4325    3.0516   52.3718 C.ar    1  ZINC000742270208    0.0900
     16 F16        -2.2261    3.2831   53.4404 F       1  ZINC000742270208   -0.0900
     17 C17        -0.1987    3.6745   52.2767 C.ar    1  ZINC000742270208    0.1100
     18 F18         0.2106    4.5140   53.2529 F       1  ZINC000742270208   -0.1000
     19 C19         0.6152    3.4369   51.1824 C.ar    1  ZINC000742270208   -0.1100
     20 C20         0.1977    2.5774   50.1806 C.ar    1  ZINC000742270208    0.1200
     21 F21         0.9938    2.3471   49.1136 F       1  ZINC000742270208   -0.1000
     22 C22        -1.0331    1.9485   50.2745 C.ar    1  ZINC000742270208    0.1200
     23 F23        -1.4397    1.1094   49.2969 F       1  ZINC000742270208   -0.0900
     24 C24        -6.7192    2.4511   51.9355 C.ar    1  ZINC000742270208   -0.0300
     25 C25        -7.8977    1.8874   52.3767 C.ar    1  ZINC000742270208   -0.0800
     26 H26       -12.6232    0.6435   53.2980 H       1  ZINC000742270208    0.0700
     27 H27       -11.8881   -0.2497   51.9452 H       1  ZINC000742270208    0.0600
     28 H28       -11.7876   -0.8990   53.5994 H       1  ZINC000742270208    0.0600
     29 H29       -10.4741    1.6742   52.6142 H       1  ZINC000742270208    0.1000
     30 H30       -10.3328    0.2205   55.2944 H       1  ZINC000742270208    0.0700
     31 H31        -9.3970    1.6671   54.8478 H       1  ZINC000742270208    0.0600
     32 H32       -11.1685    1.7629   54.9930 H       1  ZINC000742270208    0.0700
     33 H33        -7.1667   -1.3757   51.7709 H       1  ZINC000742270208    0.1500
     34 H34        -5.0795   -0.3439   50.9802 H       1  ZINC000742270208    0.1500
     35 H35         1.5769    3.9229   51.1099 H       1  ZINC000742270208    0.1900
     36 H36        -6.5852    3.5219   51.9782 H       1  ZINC000742270208    0.1500
     37 H37        -8.6845    2.5148   52.7688 H       1  ZINC000742270208    0.1500
@<TRIPOS>BOND
     1     1     2    1
     2     1    26    1
     3     1    27    1
     4     1    28    1
     5     2     3    1
     6     2     4    1
     7     2    29    1
     8     3    30    1
     9     3    31    1
    10     3    32    1
    11     4     5    2
    12     4     6    1
    13     6    25   ar
    14     6     7   ar
    15     7     8   ar
    16     7    33    1
    17     8     9   ar
    18     8    34    1
    19     9    10    1
    20     9    24   ar
    21    10    11    2
    22    10    12    2
    23    10    13    1
    24    13    14    1
    25    14    22   ar
    26    14    15   ar
    27    15    16    1
    28    15    17   ar
    29    17    18    1
    30    17    19   ar
    31    19    20   ar
    32    19    35    1
    33    20    21    1
    34    20    22   ar
    35    22    23    1
    36    24    25   ar
    37    24    36    1
    38    25    37    1
@<TRIPOS>SUBSTRUCTURE
     1 ZINC000742270208        1 TEMP              0 ****  ****    0 ROOT


##########                                Name:    ZINC001191386213
##########                DOCK_Rotatable_Bonds:                   6
##########                         Heavy_Atoms:                  29
##########                    Molecular_Weight:             392.433
##########                DOCK_Rotatable_Bonds:                   6
##########                       Formal_Charge:               -0.02
##########                     HBond_Acceptors:                   7
##########                        HBond_Donors:                   2
##########                         Heavy_Atoms:                  29
##########                          Grid_Score:          -31.871559
##########                     Grid_vdw_energy:          -31.537172
##########                      Grid_es_energy:           -0.334387
##########           Internal_energy_repulsive:           17.046829

@<TRIPOS>MOLECULE
ZINC001191386213
 50 53 1 0 0
SMALL
USER_CHARGES


@<TRIPOS>ATOM
      1 C1        -12.5526   -2.2923   58.4121 C.3     1  ZINC001191386213   -0.1700
      2 C2        -12.3655   -1.2753   57.3159 C.2     1  ZINC001191386213    0.5100
      3 O3        -11.7659   -0.2452   57.5402 O.2     1  ZINC001191386213   -0.5200
      4 N4        -12.8643   -1.5105   56.0861 N.am    1  ZINC001191386213   -0.6800
      5 C5        -12.6906   -0.5661   55.0681 C.ar    1  ZINC001191386213    0.1400
      6 C6        -13.7948    0.0684   54.5130 C.ar    1  ZINC001191386213   -0.1400
      7 C7        -13.6269    1.0020   53.5078 C.ar    1  ZINC001191386213   -0.1000
      8 C8        -12.3613    1.3088   53.0497 C.ar    1  ZINC001191386213   -0.1100
      9 C9        -11.2480    0.6768   53.6006 C.ar    1  ZINC001191386213    0.0100
     10 C10        -9.8864    1.0058   53.1089 C.2     1  ZINC001191386213    0.0700
     11 N11        -9.4808    2.1780   52.6683 N.2     1  ZINC001191386213   -0.2500
     12 N12        -8.2465    2.1310   52.3171 N.pl3   1  ZINC001191386213   -0.3800
     13 C13        -7.7543    0.8717   52.5168 C.2     1  ZINC001191386213   -0.0400
     14 C14        -6.3852    0.4068   52.2411 C.2     1  ZINC001191386213    0.6100
     15 O15        -6.1124   -0.7744   52.3407 O.2     1  ZINC001191386213   -0.5100
     16 N16        -5.4338    1.2898   51.8783 N.am    1  ZINC001191386213   -0.6200
     17 C17        -5.6253    2.7389   51.7204 C.3     1  ZINC001191386213    0.0800
     18 C18        -4.2737    3.3334   51.2714 C.3     1  ZINC001191386213   -0.1200
     19 C19        -3.5440    2.1108   50.6548 C.3     1  ZINC001191386213   -0.0600
     20 H20        -3.8601    1.9458   49.6248 H       1  ZINC001191386213    0.1000
     21 C21        -2.0485    2.2760   50.7379 C.ar    1  ZINC001191386213   -0.1100
     22 C22        -1.4601    2.6546   51.9295 C.ar    1  ZINC001191386213   -0.0900
     23 C23        -0.0879    2.8064   52.0060 C.ar    1  ZINC001191386213   -0.1300
     24 C24         0.6968    2.5800   50.8909 C.ar    1  ZINC001191386213   -0.0900
     25 C25         0.1105    2.2017   49.6978 C.ar    1  ZINC001191386213   -0.1500
     26 C26        -1.2627    2.0430   49.6217 C.ar    1  ZINC001191386213    0.1100
     27 F27        -1.8369    1.6733   48.4560 F       1  ZINC001191386213   -0.1400
     28 C28        -4.0273    0.9636   51.5804 C.3     1  ZINC001191386213    0.1200
     29 C29        -8.7936    0.1229   53.0350 C.2     1  ZINC001191386213   -0.1300
     30 C30       -11.4155   -0.2589   54.6171 C.ar    1  ZINC001191386213   -0.1000
     31 H31       -12.0848   -1.9299   59.3275 H       1  ZINC001191386213    0.1000
     32 H32       -13.6175   -2.4481   58.5852 H       1  ZINC001191386213    0.0900
     33 H33       -12.0909   -3.2343   58.1164 H       1  ZINC001191386213    0.0900
     34 H34       -13.3437   -2.3344   55.9066 H       1  ZINC001191386213    0.4100
     35 H35       -14.7870   -0.1688   54.8676 H       1  ZINC001191386213    0.1300
     36 H36       -14.4883    1.4926   53.0793 H       1  ZINC001191386213    0.1300
     37 H37       -12.2339    2.0385   52.2638 H       1  ZINC001191386213    0.1300
     38 H38        -7.7391    2.8777   51.9624 H       1  ZINC001191386213    0.4400
     39 H39        -6.3851    2.9322   50.9631 H       1  ZINC001191386213    0.0700
     40 H40        -5.9262    3.1789   52.6711 H       1  ZINC001191386213    0.0800
     41 H41        -4.4242    4.1108   50.5223 H       1  ZINC001191386213    0.0900
     42 H42        -3.7203    3.7220   52.1263 H       1  ZINC001191386213    0.0900
     43 H43        -2.0723    2.8324   52.8013 H       1  ZINC001191386213    0.1300
     44 H44         0.3711    3.1022   52.9378 H       1  ZINC001191386213    0.1300
     45 H45         1.7685    2.6992   50.9518 H       1  ZINC001191386213    0.1300
     46 H46         0.7237    2.0255   48.8265 H       1  ZINC001191386213    0.1400
     47 H47        -3.4359    0.9398   52.4957 H       1  ZINC001191386213    0.0800
     48 H48        -3.9650    0.0065   51.0625 H       1  ZINC001191386213    0.0900
     49 H49        -8.7732   -0.9194   53.3169 H       1  ZINC001191386213    0.1700
     50 H50       -10.5557   -0.7513   55.0470 H       1  ZINC001191386213    0.1500
@<TRIPOS>BOND
     1     1     2    1
     2     1    31    1
     3     1    32    1
     4     1    33    1
     5     2     3    2
     6     2     4   am
     7     4     5    1
     8     4    34    1
     9     5    30   ar
    10     5     6   ar
    11     6     7   ar
    12     6    35    1
    13     7     8   ar
    14     7    36    1
    15     8     9   ar
    16     8    37    1
    17     9    10    1
    18     9    30   ar
    19    10    29    1
    20    10    11    2
    21    11    12    1
    22    12    13    1
    23    12    38    1
    24    13    14    1
    25    13    29    2
    26    14    15    2
    27    14    16   am
    28    16    28    1
    29    16    17    1
    30    17    18    1
    31    17    39    1
    32    17    40    1
    33    18    19    1
    34    18    41    1
    35    18    42    1
    36    19    20    1
    37    19    21    1
    38    19    28    1
    39    21    26   ar
    40    21    22   ar
    41    22    23   ar
    42    22    43    1
    43    23    24   ar
    44    23    44    1
    45    24    25   ar
    46    24    45    1
    47    25    26   ar
    48    25    46    1
    49    26    27    1
    50    28    47    1
    51    28    48    1
    52    29    49    1
    53    30    50    1
@<TRIPOS>SUBSTRUCTURE
     1 ZINC001191386213        1 TEMP              0 ****  ****    0 ROOT


##########                                Name:    ZINC000469459940
##########                DOCK_Rotatable_Bonds:                   7
##########                         Heavy_Atoms:                  24
##########                    Molecular_Weight:             414.295
##########                DOCK_Rotatable_Bonds:                   7
##########                       Formal_Charge:          -0.0200002
##########                     HBond_Acceptors:                   6
##########                        HBond_Donors:                   1
##########                         Heavy_Atoms:                  24
##########                          Grid_Score:          -31.869715
##########                     Grid_vdw_energy:          -30.296089
##########                      Grid_es_energy:           -1.573626
##########           Internal_energy_repulsive:            8.506816

@<TRIPOS>MOLECULE
ZINC000469459940
 41 42 1 0 0
SMALL
USER_CHARGES


@<TRIPOS>ATOM
      1 C1        -11.3012   -1.3610   57.2274 C.3     1  ZINC000469459940   -0.1600
      2 C2        -11.4614   -1.1856   55.7159 C.3     1  ZINC000469459940   -0.1200
      3 C3        -11.4759    0.3057   55.3742 C.3     1  ZINC000469459940   -0.1200
      4 C4        -10.1147    0.7121   54.8062 C.3     1  ZINC000469459940   -0.6000
      5 S5        -10.0535    0.3125   53.0379 S.o2    1  ZINC000469459940    2.4900
      6 O6        -10.0393   -1.0952   52.8449 O.2     1  ZINC000469459940   -0.9300
      7 O7        -10.9461    1.1429   52.3079 O.2     1  ZINC000469459940   -0.9300
      8 C8         -8.4522    0.8379   52.5235 C.ar    1  ZINC000469459940   -0.6400
      9 C9         -7.4010   -0.0617   52.5182 C.ar    1  ZINC000469459940   -0.0300
     10 C10        -6.1447    0.3432   52.1170 C.ar    1  ZINC000469459940   -0.0800
     11 C11        -5.9355    1.6636   51.7154 C.ar    1  ZINC000469459940   -0.0900
     12 C12        -4.5922    2.1044   51.2838 C.2     1  ZINC000469459940    0.5600
     13 O13        -4.4518    2.6693   50.2166 O.2     1  ZINC000469459940   -0.5000
     14 N14        -3.5233    1.8798   52.0733 N.am    1  ZINC000469459940   -0.6700
     15 C15        -2.2522    2.2970   51.6648 C.ar    1  ZINC000469459940    0.1900
     16 C16        -1.4940    3.1218   52.4855 C.ar    1  ZINC000469459940   -0.1500
     17 C17        -0.2388    3.5330   52.0807 C.ar    1  ZINC000469459940   -0.0400
     18 C18         0.2640    3.1247   50.8588 C.ar    1  ZINC000469459940   -0.1500
     19 Br19        1.9827    3.6899   50.3086 Br      1  ZINC000469459940   -0.0200
     20 C20        -0.4897    2.3015   50.0369 C.ar    1  ZINC000469459940    0.1500
     21 F21         0.0035    1.9039   48.8437 F       1  ZINC000469459940   -0.1200
     22 C22        -1.7443    1.8823   50.4407 C.ar    1  ZINC000469459940   -0.1500
     23 C23        -7.0006    2.5659   51.7227 C.ar    1  ZINC000469459940   -0.1100
     24 C24        -8.2530    2.1467   52.1214 C.ar    1  ZINC000469459940   -0.0300
     25 H25       -10.3644   -0.9053   57.5487 H       1  ZINC000469459940    0.0600
     26 H26       -12.1340   -0.8789   57.7394 H       1  ZINC000469459940    0.0600
     27 H27       -11.2908   -2.4233   57.4709 H       1  ZINC000469459940    0.0600
     28 H28       -10.6287   -1.6676   55.2039 H       1  ZINC000469459940    0.0700
     29 H29       -12.3981   -1.6411   55.3947 H       1  ZINC000469459940    0.0700
     30 H30       -12.2516    0.5013   54.6338 H       1  ZINC000469459940    0.0800
     31 H31       -11.6805    0.8831   56.2758 H       1  ZINC000469459940    0.0800
     32 H32        -9.9697    1.7838   54.9418 H       1  ZINC000469459940    0.1400
     33 H33        -9.3265    0.1699   55.3286 H       1  ZINC000469459940    0.1400
     34 H34        -7.5642   -1.0830   52.8291 H       1  ZINC000469459940    0.1500
     35 H35        -5.3248   -0.3597   52.1140 H       1  ZINC000469459940    0.1500
     36 H36        -3.6354    1.4290   52.9248 H       1  ZINC000469459940    0.4200
     37 H37        -1.8856    3.4420   53.4396 H       1  ZINC000469459940    0.1500
     38 H38         0.3505    4.1744   52.7192 H       1  ZINC000469459940    0.1500
     39 H39        -2.3319    1.2407   49.8008 H       1  ZINC000469459940    0.1600
     40 H40        -6.8453    3.5890   51.4136 H       1  ZINC000469459940    0.1400
     41 H41        -9.0779    2.8437   52.1275 H       1  ZINC000469459940    0.1500
@<TRIPOS>BOND
     1     1     2    1
     2     1    25    1
     3     1    26    1
     4     1    27    1
     5     2     3    1
     6     2    28    1
     7     2    29    1
     8     3     4    1
     9     3    30    1
    10     3    31    1
    11     4     5    1
    12     4    32    1
    13     4    33    1
    14     5     6    2
    15     5     7    2
    16     5     8    1
    17     8    24   ar
    18     8     9   ar
    19     9    10   ar
    20     9    34    1
    21    10    11   ar
    22    10    35    1
    23    11    12    1
    24    11    23   ar
    25    12    13    2
    26    12    14   am
    27    14    15    1
    28    14    36    1
    29    15    22   ar
    30    15    16   ar
    31    16    17   ar
    32    16    37    1
    33    17    18   ar
    34    17    38    1
    35    18    19    1
    36    18    20   ar
    37    20    21    1
    38    20    22   ar
    39    22    39    1
    40    23    24   ar
    41    23    40    1
    42    24    41    1
@<TRIPOS>SUBSTRUCTURE
     1 ZINC000469459940        1 TEMP              0 ****  ****    0 ROOT


##########                                Name:    ZINC000410354665
##########                DOCK_Rotatable_Bonds:                   7
##########                         Heavy_Atoms:                  29
##########                    Molecular_Weight:             417.889
##########                DOCK_Rotatable_Bonds:                   7
##########                       Formal_Charge:        -3.72529e-08
##########                     HBond_Acceptors:                   7
##########                        HBond_Donors:                   1
##########                         Heavy_Atoms:                  29
##########                          Grid_Score:          -31.841038
##########                     Grid_vdw_energy:          -32.035698
##########                      Grid_es_energy:            0.194660
##########           Internal_energy_repulsive:           12.104312

@<TRIPOS>MOLECULE
ZINC000410354665
 53 56 1 0 0
SMALL
USER_CHARGES


@<TRIPOS>ATOM
      1 C1         -8.8563    2.0826   56.5576 C.3     1  ZINC000410354665    0.0200
      2 O2         -9.9318    2.0393   55.6178 O.3     1  ZINC000410354665   -0.3000
      3 C3         -9.8233    1.1483   54.5960 C.ar    1  ZINC000410354665    0.0900
      4 C4         -8.6564    1.0797   53.8606 C.ar    1  ZINC000410354665   -0.1100
      5 C5         -8.5482    0.1624   52.8116 C.ar    1  ZINC000410354665   -0.1400
      6 C6         -7.3029    0.0845   52.0227 C.2     1  ZINC000410354665    0.5700
      7 O7         -6.9492   -0.9776   51.5484 O.2     1  ZINC000410354665   -0.5300
      8 N8         -6.5582    1.1908   51.8284 N.am    1  ZINC000410354665   -0.7200
      9 C9         -5.3232    1.1139   51.0440 C.3     1  ZINC000410354665    0.1700
     10 C10        -4.2772    2.0032   51.6653 C.ar    1  ZINC000410354665   -0.1000
     11 C11        -3.0454    2.1494   51.0557 C.ar    1  ZINC000410354665   -0.0900
     12 C12        -2.0821    2.9630   51.6243 C.ar    1  ZINC000410354665   -0.0300
     13 Cl13       -0.5358    3.1439   50.8561 Cl      1  ZINC000410354665   -0.0400
     14 C14        -2.3510    3.6352   52.8081 C.ar    1  ZINC000410354665    0.0700
     15 O15        -1.3907    4.4265   53.3603 O.3     1  ZINC000410354665   -0.2900
     16 C16        -1.8236    5.3726   54.3439 C.3     1  ZINC000410354665    0.0200
     17 C17        -2.7650    4.6545   55.3202 C.3     1  ZINC000410354665    0.0200
     18 O18        -3.8776    4.1448   54.5770 O.3     1  ZINC000410354665   -0.3000
     19 C19        -3.5910    3.4907   53.4183 C.ar    1  ZINC000410354665    0.0600
     20 C20        -4.5535    2.6758   52.8409 C.ar    1  ZINC000410354665   -0.0900
     21 C21        -9.6205   -0.6806   52.5116 C.ar    1  ZINC000410354665   -0.0800
     22 C22       -10.7826   -0.6067   53.2490 C.ar    1  ZINC000410354665   -0.1900
     23 C23       -10.8883    0.3000   54.2946 C.ar    1  ZINC000410354665    0.1400
     24 O24       -12.0352    0.3690   55.0182 O.3     1  ZINC000410354665   -0.2900
     25 C25       -12.5476   -0.8585   55.5404 C.3     1  ZINC000410354665    0.0700
     26 C26       -11.4691   -1.5800   56.3862 C.3     1  ZINC000410354665   -0.1500
     27 C27       -12.3140   -2.4813   57.3205 C.3     1  ZINC000410354665   -0.1200
     28 C28       -13.5425   -1.6166   57.6710 C.3     1  ZINC000410354665   -0.1200
     29 C29       -13.6911   -0.5848   56.5391 C.3     1  ZINC000410354665   -0.1200
     30 H30        -8.7475    1.1067   57.0305 H       1  ZINC000410354665    0.0600
     31 H31        -7.9322    2.3410   56.0407 H       1  ZINC000410354665    0.0600
     32 H32        -9.0691    2.8334   57.3187 H       1  ZINC000410354665    0.1000
     33 H33        -7.8295    1.7334   54.0954 H       1  ZINC000410354665    0.1500
     34 H34        -6.8397    2.0379   52.2077 H       1  ZINC000410354665    0.4000
     35 H35        -4.9642    0.0848   51.0314 H       1  ZINC000410354665    0.0800
     36 H36        -5.5198    1.4425   50.0235 H       1  ZINC000410354665    0.0900
     37 H37        -2.8346    1.6271   50.1342 H       1  ZINC000410354665    0.1500
     38 H38        -0.9607    5.7618   54.8843 H       1  ZINC000410354665    0.1300
     39 H39        -2.3535    6.1917   53.8576 H       1  ZINC000410354665    0.0800
     40 H40        -2.2368    3.8317   55.8020 H       1  ZINC000410354665    0.0800
     41 H41        -3.1179    5.3575   56.0746 H       1  ZINC000410354665    0.1300
     42 H42        -5.5186    2.5637   53.3124 H       1  ZINC000410354665    0.1400
     43 H43        -9.5392   -1.3902   51.7014 H       1  ZINC000410354665    0.1300
     44 H44       -11.6112   -1.2590   53.0157 H       1  ZINC000410354665    0.1400
     45 H45       -12.8937   -1.5013   54.7311 H       1  ZINC000410354665    0.0800
     46 H46       -10.8198   -2.1828   55.7513 H       1  ZINC000410354665    0.0700
     47 H47       -10.8875   -0.8620   56.9643 H       1  ZINC000410354665    0.0800
     48 H48       -12.6216   -3.3882   56.8000 H       1  ZINC000410354665    0.0700
     49 H49       -11.7525   -2.7292   58.2213 H       1  ZINC000410354665    0.0700
     50 H50       -14.4346   -2.2406   57.7269 H       1  ZINC000410354665    0.0700
     51 H51       -13.3821   -1.1077   58.6215 H       1  ZINC000410354665    0.0700
     52 H52       -13.6028    0.4249   56.9404 H       1  ZINC000410354665    0.0800
     53 H53       -14.6552   -0.7079   56.0459 H       1  ZINC000410354665    0.0700
@<TRIPOS>BOND
     1     1     2    1
     2     1    30    1
     3     1    31    1
     4     1    32    1
     5     2     3    1
     6     3    23   ar
     7     3     4   ar
     8     4     5   ar
     9     4    33    1
    10     5     6    1
    11     5    21   ar
    12     6     7    2
    13     6     8   am
    14     8     9    1
    15     8    34    1
    16     9    10    1
    17     9    35    1
    18     9    36    1
    19    10    20   ar
    20    10    11   ar
    21    11    12   ar
    22    11    37    1
    23    12    13    1
    24    12    14   ar
    25    14    19   ar
    26    14    15    1
    27    15    16    1
    28    16    17    1
    29    16    38    1
    30    16    39    1
    31    17    18    1
    32    17    40    1
    33    17    41    1
    34    18    19    1
    35    19    20   ar
    36    20    42    1
    37    21    22   ar
    38    21    43    1
    39    22    23   ar
    40    22    44    1
    41    23    24    1
    42    24    25    1
    43    25    29    1
    44    25    26    1
    45    25    45    1
    46    26    27    1
    47    26    46    1
    48    26    47    1
    49    27    28    1
    50    27    48    1
    51    27    49    1
    52    28    29    1
    53    28    50    1
    54    28    51    1
    55    29    52    1
    56    29    53    1
@<TRIPOS>SUBSTRUCTURE
     1 ZINC000410354665        1 TEMP              0 ****  ****    0 ROOT


##########                                Name:    ZINC000355549087
##########                DOCK_Rotatable_Bonds:                   9
##########                         Heavy_Atoms:                  23
##########                    Molecular_Weight:             336.415
##########                DOCK_Rotatable_Bonds:                   9
##########                       Formal_Charge:        -9.53674e-07
##########                     HBond_Acceptors:                   8
##########                        HBond_Donors:                   4
##########                         Heavy_Atoms:                  23
##########                          Grid_Score:          -31.835228
##########                     Grid_vdw_energy:          -31.676661
##########                      Grid_es_energy:           -0.158567
##########           Internal_energy_repulsive:           15.191392

@<TRIPOS>MOLECULE
ZINC000355549087
 43 44 1 0 0
SMALL
USER_CHARGES


@<TRIPOS>ATOM
      1 C1          2.9197    1.2963   47.3700 C.3     1  <0>        -0.1500
      2 C2          2.6472    1.3705   48.8737 C.3     1  <0>        -0.1200
      3 C3          1.4936    2.3408   49.1356 C.3     1  <0>        -0.1000
      4 H4          0.6845    2.1415   48.4329 H       1  <0>         0.0800
      5 C5          1.9848    3.7783   48.9534 C.3     1  <0>        -0.1500
      6 C6          0.9843    2.1534   50.5662 C.3     1  <0>         0.0900
      7 H7          1.2606    1.1612   50.9232 H       1  <0>         0.1000
      8 O8          1.5689    3.1444   51.4136 O.3     1  <0>        -0.3500
      9 C9          2.6387    2.6569   52.2258 C.3     1  <0>         0.0200
     10 C10        -0.5158    2.2952   50.5879 C.2     1  <0>         0.5100
     11 O11        -1.1579    2.1008   49.5776 O.2     1  <0>        -0.4800
     12 N12        -1.1440    2.6380   51.7300 N.am    1  <0>        -0.6200
     13 C13        -2.5274    2.7672   51.7503 C.2     1  <0>         0.2400
     14 N14        -3.3597    1.7833   51.8754 N.2     1  <0>        -0.5000
     15 C15        -4.6512    2.0859   51.8754 C.2     1  <0>         0.1700
     16 C16        -5.7196    1.0629   52.0104 C.2     1  <0>        -0.1100
     17 C17        -5.6562   -0.2323   51.5827 C.2     1  <0>         0.0600
     18 N18        -6.8263   -0.8443   51.8888 N.pl3   1  <0>        -0.5400
     19 C19        -7.6501    0.0614   52.5178 C.2     1  <0>        -0.0600
     20 C20        -9.0063   -0.2037   53.0106 C.2     1  <0>         0.5900
     21 N21        -9.7469    0.8010   53.5193 N.am    1  <0>        -0.8600
     22 O22        -9.4626   -1.3308   52.9601 O.2     1  <0>        -0.5300
     23 C23        -6.9803    1.2497   52.6079 C.2     1  <0>        -0.0600
     24 C24        -4.9096    3.3994   51.7427 C.2     1  <0>        -0.3200
     25 S25        -3.3708    4.2481   51.6212 S.3     1  <0>         0.2500
     26 H26         3.7416    0.6050   47.1834 H       1  <0>         0.0600
     27 H27         2.0255    0.9449   46.8556 H       1  <0>         0.0600
     28 H28         3.1866    2.2863   46.9999 H       1  <0>         0.0600
     29 H29         2.3804    0.3806   49.2439 H       1  <0>         0.0600
     30 H30         3.5416    1.7219   49.3882 H       1  <0>         0.0700
     31 H31         2.7940    3.9776   49.6562 H       1  <0>         0.0700
     32 H32         2.3477    3.9118   47.9342 H       1  <0>         0.0600
     33 H33         1.1630    4.4695   49.1399 H       1  <0>         0.0500
     34 H34         2.9622    3.4417   52.9098 H       1  <0>         0.0900
     35 H35         2.2967    1.7945   52.7980 H       1  <0>         0.0500
     36 H36         3.4733    2.3630   51.5893 H       1  <0>         0.0500
     37 H37        -0.6303    2.7947   52.5378 H       1  <0>         0.4200
     38 H38        -4.8152   -0.6917   51.0845 H       1  <0>         0.1800
     39 H39        -7.0470   -1.7689   51.6959 H       1  <0>         0.4200
     40 H40       -10.6440    0.6258   53.8440 H       1  <0>         0.4000
     41 H41        -9.3828    1.6991   53.5606 H       1  <0>         0.4100
     42 H42        -7.3515    2.1628   53.0492 H       1  <0>         0.1500
     43 H43        -5.8888    3.8542   51.7185 H       1  <0>         0.1800
@<TRIPOS>BOND
     1     1     2    1
     2     1    26    1
     3     1    27    1
     4     1    28    1
     5     2     3    1
     6     2    29    1
     7     2    30    1
     8     3     4    1
     9     3     5    1
    10     3     6    1
    11     5    31    1
    12     5    32    1
    13     5    33    1
    14     6     7    1
    15     6     8    1
    16     6    10    1
    17     8     9    1
    18     9    34    1
    19     9    35    1
    20     9    36    1
    21    10    11    2
    22    10    12   am
    23    12    13    1
    24    12    37    1
    25    13    25    1
    26    13    14    2
    27    14    15    1
    28    15    16    1
    29    15    24    2
    30    16    23    1
    31    16    17    2
    32    17    18    1
    33    17    38    1
    34    18    19    1
    35    18    39    1
    36    19    20    1
    37    19    23    2
    38    20    21   am
    39    20    22    2
    40    21    40    1
    41    21    41    1
    42    23    42    1
    43    24    25    1
    44    24    43    1
@<TRIPOS>SUBSTRUCTURE
     1 <0>         1 TEMP              0 ****  ****    0 ROOT


##########                                Name:    ZINC000991934963
##########                DOCK_Rotatable_Bonds:                   8
##########                         Heavy_Atoms:                  27
##########                    Molecular_Weight:             370.495
##########                DOCK_Rotatable_Bonds:                   8
##########                       Formal_Charge:          -0.0499997
##########                     HBond_Acceptors:                   6
##########                        HBond_Donors:                   1
##########                         Heavy_Atoms:                  27
##########                          Grid_Score:          -31.827202
##########                     Grid_vdw_energy:          -31.648129
##########                      Grid_es_energy:           -0.179074
##########           Internal_energy_repulsive:           11.407927

@<TRIPOS>MOLECULE
ZINC000991934963
 57 61 1 0 0
SMALL
USER_CHARGES


@<TRIPOS>ATOM
      1 C1        -10.2634   -2.7667   57.3123 C.3     1  ZINC000991934963    0.0400
      2 O2        -11.6184   -2.3530   57.1257 O.3     1  ZINC000991934963   -0.2900
      3 C3        -11.9163   -1.7302   55.9603 C.ar    1  ZINC000991934963    0.5000
      4 N4        -13.1681   -1.3757   55.7196 N.ar    1  ZINC000991934963   -0.5700
      5 C5        -13.4936   -0.7658   54.5915 C.ar    1  ZINC000991934963    0.1900
      6 C6        -12.5050   -0.4997   53.6577 C.ar    1  ZINC000991934963   -0.2700
      7 C7        -11.2044   -0.8850   53.9427 C.ar    1  ZINC000991934963    0.2200
      8 C8        -10.0960   -0.6167   52.9576 C.3     1  ZINC000991934963    0.1000
      9 N9         -9.2123    0.4301   53.4880 N.3     1  ZINC000991934963   -0.4900
     10 C10        -9.8969    1.7617   53.4864 C.3     1  ZINC000991934963    0.0400
     11 C11        -8.9416    2.7508   52.7478 C.3     1  ZINC000991934963   -0.1400
     12 C12        -7.5914    2.0643   52.9434 C.3     1  ZINC000991934963    0.1700
     13 N13        -7.0586    2.2576   54.2943 N.am    1  ZINC000991934963   -0.7000
     14 C14        -6.5733    3.4601   54.6616 C.2     1  ZINC000991934963    0.5200
     15 O15        -6.5763    4.3818   53.8733 O.2     1  ZINC000991934963   -0.5300
     16 C16        -6.0268    3.6594   56.0518 C.3     1  ZINC000991934963   -0.1100
     17 C17        -7.1131    3.3329   57.0785 C.3     1  ZINC000991934963   -0.1300
     18 H18        -8.1343    3.3281   56.6971 H       1  ZINC000991934963    0.1200
     19 C19        -6.8974    3.8173   58.5137 C.3     1  ZINC000991934963   -0.1700
     20 C20        -6.7656    2.3293   58.1798 C.3     1  ZINC000991934963   -0.1200
     21 H21        -5.7630    1.9018   58.1732 H       1  ZINC000991934963    0.1000
     22 C22        -7.8778    1.3958   58.6624 C.3     1  ZINC000991934963   -0.1200
     23 C23        -7.4732    0.2091   59.5391 C.3     1  ZINC000991934963   -0.1800
     24 C24        -8.2061    1.4016   60.1567 C.3     1  ZINC000991934963   -0.1800
     25 C25        -6.5209    2.1821   51.8638 C.3     1  ZINC000991934963   -0.1200
     26 C26        -5.7612    0.8253   51.9954 C.3     1  ZINC000991934963   -0.1200
     27 C27        -6.7834   -0.1782   52.6104 C.3     1  ZINC000991934963   -0.1000
     28 C28        -8.0606    0.5896   52.6670 C.3     1  ZINC000991934963    0.0500
     29 H29        -8.4330    0.6290   51.6433 H       1  ZINC000991934963    0.0400
     30 N30       -10.9474   -1.4864   55.0926 N.ar    1  ZINC000991934963   -0.5000
     31 H31        -9.6086   -1.8964   57.2697 H       1  ZINC000991934963    0.0600
     32 H32       -10.1617   -3.2507   58.2837 H       1  ZINC000991934963    0.1100
     33 H33        -9.9863   -3.4688   56.5258 H       1  ZINC000991934963    0.0600
     34 H34       -14.5173   -0.4792   54.4006 H       1  ZINC000991934963    0.1700
     35 H35       -12.7426   -0.0034   52.7283 H       1  ZINC000991934963    0.1500
     36 H36        -9.5225   -1.5300   52.7983 H       1  ZINC000991934963    0.1000
     37 H37       -10.5233   -0.2862   52.0109 H       1  ZINC000991934963    0.0600
     38 H38       -10.8467    1.6930   52.9560 H       1  ZINC000991934963    0.0600
     39 H39       -10.0636    2.0974   54.5101 H       1  ZINC000991934963    0.0800
     40 H40        -9.1946    2.8234   51.6900 H       1  ZINC000991934963    0.0800
     41 H41        -8.9536    3.7332   53.2200 H       1  ZINC000991934963    0.0900
     42 H42        -7.0550    1.5201   54.9244 H       1  ZINC000991934963    0.4000
     43 H43        -5.1726    2.9997   56.2044 H       1  ZINC000991934963    0.1000
     44 H44        -5.7118    4.6957   56.1733 H       1  ZINC000991934963    0.0900
     45 H45        -5.9815    4.3686   58.7264 H       1  ZINC000991934963    0.0900
     46 H46        -7.7766    4.1309   59.0766 H       1  ZINC000991934963    0.1000
     47 H47        -8.7036    1.2493   57.9662 H       1  ZINC000991934963    0.1000
     48 H48        -8.0328   -0.7187   59.4197 H       1  ZINC000991934963    0.0900
     49 H49        -6.4147    0.0932   59.7721 H       1  ZINC000991934963    0.0900
     50 H50        -7.6299    2.0703   60.7961 H       1  ZINC000991934963    0.0900
     51 H51        -9.2479    1.2584   60.4437 H       1  ZINC000991934963    0.0900
     52 H52        -6.9744    2.2781   50.8773 H       1  ZINC000991934963    0.0800
     53 H53        -5.8548    3.0204   52.0684 H       1  ZINC000991934963    0.0800
     54 H54        -5.4384    0.4786   51.0138 H       1  ZINC000991934963    0.0700
     55 H55        -4.9017    0.9384   52.6561 H       1  ZINC000991934963    0.0700
     56 H56        -6.8923   -1.0528   51.9692 H       1  ZINC000991934963    0.0700
     57 H57        -6.4717   -0.4745   53.6119 H       1  ZINC000991934963    0.0700
@<TRIPOS>BOND
     1     1     2    1
     2     1    31    1
     3     1    32    1
     4     1    33    1
     5     2     3    1
     6     3    30   ar
     7     3     4   ar
     8     4     5   ar
     9     5     6   ar
    10     5    34    1
    11     6     7   ar
    12     6    35    1
    13     7     8    1
    14     7    30   ar
    15     8     9    1
    16     8    36    1
    17     8    37    1
    18     9    28    1
    19     9    10    1
    20    10    11    1
    21    10    38    1
    22    10    39    1
    23    11    12    1
    24    11    40    1
    25    11    41    1
    26    12    28    1
    27    12    13    1
    28    12    25    1
    29    13    14   am
    30    13    42    1
    31    14    15    2
    32    14    16    1
    33    16    17    1
    34    16    43    1
    35    16    44    1
    36    17    18    1
    37    17    20    1
    38    17    19    1
    39    19    20    1
    40    19    45    1
    41    19    46    1
    42    20    21    1
    43    20    22    1
    44    22    24    1
    45    22    23    1
    46    22    47    1
    47    23    24    1
    48    23    48    1
    49    23    49    1
    50    24    50    1
    51    24    51    1
    52    25    26    1
    53    25    52    1
    54    25    53    1
    55    26    27    1
    56    26    54    1
    57    26    55    1
    58    27    28    1
    59    27    56    1
    60    27    57    1
    61    28    29    1
@<TRIPOS>SUBSTRUCTURE
     1 ZINC000991934963        1 TEMP              0 ****  ****    0 ROOT


##########                                Name:    ZINC001058079801
##########                DOCK_Rotatable_Bonds:                   7
##########                         Heavy_Atoms:                  24
##########                    Molecular_Weight:             349.457
##########                DOCK_Rotatable_Bonds:                   7
##########                       Formal_Charge:           0.0200001
##########                     HBond_Acceptors:                   8
##########                        HBond_Donors:                   0
##########                         Heavy_Atoms:                  24
##########                          Grid_Score:          -31.784561
##########                     Grid_vdw_energy:          -31.958988
##########                      Grid_es_energy:            0.174428
##########           Internal_energy_repulsive:           20.912876

@<TRIPOS>MOLECULE
ZINC001058079801
 47 49 1 0 0
SMALL
USER_CHARGES


@<TRIPOS>ATOM
      1 C1        -10.4002   -2.4222   56.7798 C.3     1  ZINC001058079801   -0.1500
      2 C2        -11.7384   -1.7161   56.5521 C.3     1  ZINC001058079801   -0.1200
      3 C3        -11.4860   -0.3078   56.0100 C.3     1  ZINC001058079801   -0.0300
      4 C4        -10.8285   -0.4007   54.6571 C.2     1  ZINC001058079801    0.2900
      5 N5        -11.2425   -1.2546   53.7666 N.2     1  ZINC001058079801   -0.4800
      6 S6        -10.2429   -1.0288   52.4108 S.3     1  ZINC001058079801    0.1900
      7 C7         -9.3092    0.2248   53.1356 C.2     1  ZINC001058079801    0.2700
      8 N8         -8.2530    0.9198   52.5748 N.3     1  ZINC001058079801   -0.4300
      9 C9         -7.0131    0.1357   52.6399 C.3     1  ZINC001058079801    0.0700
     10 C10        -5.9033    0.8700   51.8841 C.3     1  ZINC001058079801   -0.1300
     11 C11        -5.6904    2.2495   52.5137 C.3     1  ZINC001058079801    0.1300
     12 N12        -4.6696    2.9800   51.7583 N.am    1  ZINC001058079801   -0.6100
     13 C13        -4.9055    3.3278   50.3550 C.3     1  ZINC001058079801    0.0700
     14 C14        -3.5132    3.3321   52.3546 C.2     1  ZINC001058079801    0.5200
     15 O15        -3.3185    3.0456   53.5169 O.2     1  ZINC001058079801   -0.5300
     16 C16        -2.4624    4.0820   51.5772 C.3     1  ZINC001058079801   -0.0600
     17 C17        -1.4471    3.1084   51.0367 C.2     1  ZINC001058079801   -0.1900
     18 C18        -1.5465    2.3246   49.9365 C.2     1  ZINC001058079801   -0.0400
     19 O19        -0.4010    1.6328   49.8587 O.3     1  ZINC001058079801    0.1000
     20 N20         0.3486    1.9106   50.7659 N.2     1  ZINC001058079801   -0.3600
     21 C21        -0.1677    2.8062   51.5571 C.2     1  ZINC001058079801    0.0000
     22 C22        -7.0087    3.0276   52.4769 C.3     1  ZINC001058079801   -0.1200
     23 C23        -8.0865    2.2306   53.2154 C.3     1  ZINC001058079801    0.0400
     24 N24        -9.8233    0.3809   54.3373 N.2     1  ZINC001058079801   -0.5300
     25 H25       -10.5800   -3.4255   57.1661 H       1  ZINC001058079801    0.0600
     26 H26        -9.8588   -2.4878   55.8361 H       1  ZINC001058079801    0.0600
     27 H27        -9.8087   -1.8564   57.4996 H       1  ZINC001058079801    0.0600
     28 H28       -12.3299   -2.2820   55.8323 H       1  ZINC001058079801    0.0700
     29 H29       -12.2798   -1.6506   57.4958 H       1  ZINC001058079801    0.0700
     30 H30       -12.4344    0.2213   55.9174 H       1  ZINC001058079801    0.1000
     31 H31       -10.8331    0.2335   56.6947 H       1  ZINC001058079801    0.0900
     32 H32        -6.7193    0.0066   53.6815 H       1  ZINC001058079801    0.0600
     33 H33        -7.1771   -0.8413   52.1852 H       1  ZINC001058079801    0.1000
     34 H34        -4.9792    0.2953   51.9459 H       1  ZINC001058079801    0.0800
     35 H35        -6.1905    0.9873   50.8393 H       1  ZINC001058079801    0.0800
     36 H36        -5.3644    2.1319   53.5470 H       1  ZINC001058079801    0.1000
     37 H37        -5.3857    4.3047   50.2984 H       1  ZINC001058079801    0.0600
     38 H38        -3.9544    3.3591   49.8234 H       1  ZINC001058079801    0.0800
     39 H39        -5.5522    2.5783   49.8986 H       1  ZINC001058079801    0.0800
     40 H40        -2.9328    4.6133   50.7497 H       1  ZINC001058079801    0.1100
     41 H41        -1.9665    4.7974   52.2331 H       1  ZINC001058079801    0.1100
     42 H42        -2.3834    2.2681   49.2563 H       1  ZINC001058079801    0.2200
     43 H43         0.2881    3.2293   52.4401 H       1  ZINC001058079801    0.1900
     44 H44        -6.8743    3.9944   52.9622 H       1  ZINC001058079801    0.0900
     45 H45        -7.3133    3.1787   51.4413 H       1  ZINC001058079801    0.0800
     46 H46        -9.0300    2.7754   53.1788 H       1  ZINC001058079801    0.1000
     47 H47        -7.7875    2.0918   54.2544 H       1  ZINC001058079801    0.0700
@<TRIPOS>BOND
     1     1     2    1
     2     1    25    1
     3     1    26    1
     4     1    27    1
     5     2     3    1
     6     2    28    1
     7     2    29    1
     8     3     4    1
     9     3    30    1
    10     3    31    1
    11     4    24    1
    12     4     5    2
    13     5     6    1
    14     6     7    1
    15     7     8    1
    16     7    24    2
    17     8    23    1
    18     8     9    1
    19     9    10    1
    20     9    32    1
    21     9    33    1
    22    10    11    1
    23    10    34    1
    24    10    35    1
    25    11    12    1
    26    11    22    1
    27    11    36    1
    28    12    13    1
    29    12    14   am
    30    13    37    1
    31    13    38    1
    32    13    39    1
    33    14    15    2
    34    14    16    1
    35    16    17    1
    36    16    40    1
    37    16    41    1
    38    17    21    1
    39    17    18    2
    40    18    19    1
    41    18    42    1
    42    19    20    1
    43    20    21    2
    44    21    43    1
    45    22    23    1
    46    22    44    1
    47    22    45    1
    48    23    46    1
    49    23    47    1
@<TRIPOS>SUBSTRUCTURE
     1 ZINC001058079801        1 TEMP              0 ****  ****    0 ROOT


##########                                Name:    ZINC000174621331
##########                DOCK_Rotatable_Bonds:                   8
##########                         Heavy_Atoms:                  25
##########                    Molecular_Weight:             366.438
##########                DOCK_Rotatable_Bonds:                   8
##########                       Formal_Charge:        -5.96046e-08
##########                     HBond_Acceptors:                   8
##########                        HBond_Donors:                   3
##########                         Heavy_Atoms:                  25
##########                          Grid_Score:          -31.764948
##########                     Grid_vdw_energy:          -30.236862
##########                      Grid_es_energy:           -1.528086
##########           Internal_energy_repulsive:           12.952345

@<TRIPOS>MOLECULE
ZINC000174621331
 47 48 1 0 0
SMALL
USER_CHARGES


@<TRIPOS>ATOM
      1 C1        -14.0095    0.1169   51.1689 C.3     1  ZINC000174621331    0.0300
      2 O2        -12.6676   -0.1364   51.5898 O.3     1  ZINC000174621331   -0.3800
      3 C3        -12.5159   -0.2605   53.0053 C.3     1  ZINC000174621331    0.0500
      4 C4        -11.0470   -0.5276   53.3394 C.3     1  ZINC000174621331    0.2400
      5 H5        -10.7082   -1.4150   52.8048 H       1  ZINC000174621331    0.1300
      6 N6        -10.2371    0.6246   52.9358 N.am    1  ZINC000174621331   -0.7200
      7 C7         -8.9052    0.4903   52.7793 C.2     1  ZINC000174621331    0.5600
      8 O8         -8.3758   -0.5863   52.9744 O.2     1  ZINC000174621331   -0.5300
      9 C9         -8.0881    1.6525   52.3702 C.ar    1  ZINC000174621331   -0.1600
     10 C10        -8.6175    2.9417   52.4426 C.ar    1  ZINC000174621331   -0.0200
     11 C11        -7.8494    4.0221   52.0597 C.ar    1  ZINC000174621331   -0.1100
     12 C12        -8.4194    5.4150   52.1371 C.3     1  ZINC000174621331   -0.1200
     13 C13        -6.5571    3.8296   51.6053 C.ar    1  ZINC000174621331    0.0400
     14 C14        -5.7238    5.0143   51.1893 C.3     1  ZINC000174621331   -0.1600
     15 C15        -6.0259    2.5539   51.5316 C.ar    1  ZINC000174621331   -0.6800
     16 S16        -4.3785    2.3198   50.9519 S.o2    1  ZINC000174621331    2.7000
     17 N17        -3.9125    0.7956   51.4016 N.am    1  ZINC000174621331   -1.2500
     18 O18        -4.4492    2.3155   49.5328 O.2     1  ZINC000174621331   -0.9500
     19 O19        -3.5627    3.2220   51.6867 O.2     1  ZINC000174621331   -0.9600
     20 C20        -6.7816    1.4657   51.9154 C.ar    1  ZINC000174621331    0.0400
     21 C21       -10.9015   -0.7488   54.8230 C.2     1  ZINC000174621331   -0.0200
     22 C22       -10.6850    0.2079   55.7435 C.2     1  ZINC000174621331   -0.1900
     23 C23       -10.6151   -0.4394   56.9985 C.2     1  ZINC000174621331   -0.2100
     24 C24       -10.7930   -1.7530   56.7698 C.2     1  ZINC000174621331    0.0000
     25 C25       -10.7981   -2.8370   57.8167 C.3     1  ZINC000174621331   -0.0800
     26 O26       -10.9719   -1.9338   55.4511 O.3     1  ZINC000174621331   -0.1600
     27 H27       -14.6520   -0.7028   51.4906 H       1  ZINC000174621331    0.0400
     28 H28       -14.3598    1.0488   51.6129 H       1  ZINC000174621331    0.0400
     29 H29       -14.0404    0.1979   50.0824 H       1  ZINC000174621331    0.0900
     30 H30       -12.8361    0.6631   53.4874 H       1  ZINC000174621331    0.0700
     31 H31       -13.1267   -1.0887   53.3649 H       1  ZINC000174621331    0.0700
     32 H32       -10.6594    1.4840   52.7812 H       1  ZINC000174621331    0.4100
     33 H33        -9.6263    3.0934   52.7971 H       1  ZINC000174621331    0.1400
     34 H34        -8.2051    5.8414   53.1171 H       1  ZINC000174621331    0.0800
     35 H35        -7.9674    6.0362   51.3639 H       1  ZINC000174621331    0.0800
     36 H36        -9.4982    5.3750   51.9864 H       1  ZINC000174621331    0.0700
     37 H37        -5.1714    5.3904   52.0505 H       1  ZINC000174621331    0.1100
     38 H38        -5.0224    4.7104   50.4122 H       1  ZINC000174621331    0.0700
     39 H39        -6.3749    5.7992   50.8043 H       1  ZINC000174621331    0.0900
     40 H40        -3.8913    0.5521   52.3403 H       1  ZINC000174621331    0.4200
     41 H41        -3.6607    0.1465   50.7263 H       1  ZINC000174621331    0.4200
     42 H42        -6.3657    0.4706   51.8577 H       1  ZINC000174621331    0.1600
     43 H43       -10.5835    1.2672   55.5591 H       1  ZINC000174621331    0.1500
     44 H44       -10.4501    0.0306   57.9567 H       1  ZINC000174621331    0.1500
     45 H45       -11.8136   -2.9812   58.1855 H       1  ZINC000174621331    0.0800
     46 H46       -10.4351   -3.7667   57.3788 H       1  ZINC000174621331    0.0800
     47 H47       -10.1493   -2.5470   58.6432 H       1  ZINC000174621331    0.0900
@<TRIPOS>BOND
     1     1     2    1
     2     1    27    1
     3     1    28    1
     4     1    29    1
     5     2     3    1
     6     3     4    1
     7     3    30    1
     8     3    31    1
     9     4     5    1
    10     4     6    1
    11     4    21    1
    12     6     7   am
    13     6    32    1
    14     7     8    2
    15     7     9    1
    16     9    20   ar
    17     9    10   ar
    18    10    11   ar
    19    10    33    1
    20    11    12    1
    21    11    13   ar
    22    12    34    1
    23    12    35    1
    24    12    36    1
    25    13    14    1
    26    13    15   ar
    27    14    37    1
    28    14    38    1
    29    14    39    1
    30    15    16    1
    31    15    20   ar
    32    16    17   am
    33    16    18    2
    34    16    19    2
    35    17    40    1
    36    17    41    1
    37    20    42    1
    38    21    26    1
    39    21    22    2
    40    22    23    1
    41    22    43    1
    42    23    24    2
    43    23    44    1
    44    24    25    1
    45    24    26    1
    46    25    45    1
    47    25    46    1
    48    25    47    1
@<TRIPOS>SUBSTRUCTURE
     1 ZINC000174621331        1 TEMP              0 ****  ****    0 ROOT


##########                                Name:    ZINC000512239524
##########                DOCK_Rotatable_Bonds:                   9
##########                         Heavy_Atoms:                  31
##########                    Molecular_Weight:             424.518
##########                DOCK_Rotatable_Bonds:                   9
##########                       Formal_Charge:          0.00999919
##########                     HBond_Acceptors:                   7
##########                        HBond_Donors:                   1
##########                         Heavy_Atoms:                  31
##########                          Grid_Score:          -31.755308
##########                     Grid_vdw_energy:          -31.792665
##########                      Grid_es_energy:            0.037357
##########           Internal_energy_repulsive:           25.231962

@<TRIPOS>MOLECULE
ZINC000512239524
 60 63 1 0 0
SMALL
USER_CHARGES


@<TRIPOS>ATOM
      1 C1         -7.0635    3.9019   52.3470 C.3     1  ZINC000512239524   -0.1600
      2 C2         -6.4802    2.8787   53.3237 C.3     1  ZINC000512239524    0.2000
      3 H3         -5.4344    3.1168   53.5176 H       1  ZINC000512239524    0.1100
      4 N4         -7.2315    2.9199   54.5806 N.am    1  ZINC000512239524   -0.7400
      5 C5         -6.5854    3.1234   55.7457 C.2     1  ZINC000512239524    0.7100
      6 O6         -5.3787    3.2728   55.7535 O.2     1  ZINC000512239524   -0.5800
      7 N7         -7.2766    3.1613   56.9020 N.am    1  ZINC000512239524   -0.6300
      8 C8         -8.7342    2.9766   56.9093 C.3     1  ZINC000512239524    0.1300
      9 C9         -9.0842    1.8553   57.8927 C.3     1  ZINC000512239524   -0.1100
     10 C10        -8.4848    2.1788   59.2632 C.3     1  ZINC000512239524   -0.1000
     11 C11        -8.8558    1.0946   60.2419 C.2     1  ZINC000512239524    0.5300
     12 O12        -8.6587   -0.0689   59.9616 O.2     1  ZINC000512239524   -0.5300
     13 N13        -9.4067    1.4178   61.4288 N.am    1  ZINC000512239524   -0.5800
     14 C14        -9.7657    0.3639   62.3810 C.3     1  ZINC000512239524    0.1500
     15 C15        -8.9435    0.5180   63.6345 C.ar    1  ZINC000512239524   -0.1100
     16 C16        -7.5833    0.7479   63.5449 C.ar    1  ZINC000512239524   -0.0900
     17 C17        -6.8292    0.8893   64.6948 C.ar    1  ZINC000512239524   -0.1200
     18 C18        -7.4352    0.8012   65.9340 C.ar    1  ZINC000512239524   -0.1100
     19 C19        -8.7954    0.5722   66.0235 C.ar    1  ZINC000512239524   -0.1200
     20 C20        -9.5504    0.4351   64.8737 C.ar    1  ZINC000512239524   -0.1100
     21 C21        -9.6464    2.8230   61.7667 C.3     1  ZINC000512239524    0.0700
     22 C22       -10.9553    3.4520   61.2851 C.3     1  ZINC000512239524   -0.1900
     23 C23       -10.7621    3.1284   62.7680 C.3     1  ZINC000512239524   -0.2000
     24 C24        -6.9610    2.2625   59.1485 C.3     1  ZINC000512239524   -0.1400
     25 C25        -6.5862    3.3823   58.1800 C.3     1  ZINC000512239524    0.1100
     26 C26        -6.5786    1.4995   52.7244 C.ar    1  ZINC000512239524   -0.0800
     27 C27        -7.7425    0.7563   52.8419 C.ar    1  ZINC000512239524   -0.1400
     28 C28        -7.7965   -0.5052   52.2791 C.ar    1  ZINC000512239524    0.1000
     29 N29        -6.7583   -1.0034   51.6369 N.ar    1  ZINC000512239524   -0.4600
     30 C30        -5.6342   -0.3267   51.5045 C.ar    1  ZINC000512239524    0.0800
     31 C31        -5.5073    0.9449   52.0363 C.ar    1  ZINC000512239524    0.0600
     32 F32        -4.3531    1.6331   51.8972 F       1  ZINC000512239524   -0.1200
     33 H33        -6.9923    4.8995   52.7804 H       1  ZINC000512239524    0.0700
     34 H34        -6.5044    3.8713   51.4118 H       1  ZINC000512239524    0.0700
     35 H35        -8.1094    3.6638   52.1531 H       1  ZINC000512239524    0.0600
     36 H36        -8.1942    2.8007   54.5743 H       1  ZINC000512239524    0.3900
     37 H37        -9.2182    3.9016   57.2224 H       1  ZINC000512239524    0.0700
     38 H38        -9.0730    2.7047   55.9095 H       1  ZINC000512239524    0.1000
     39 H39       -10.1676    1.7727   57.9797 H       1  ZINC000512239524    0.0900
     40 H40        -8.6749    0.9124   57.5299 H       1  ZINC000512239524    0.0800
     41 H41        -8.8754    3.1340   59.6141 H       1  ZINC000512239524    0.1000
     42 H42       -10.8242    0.4433   62.6288 H       1  ZINC000512239524    0.0900
     43 H43        -9.5691   -0.6110   61.9350 H       1  ZINC000512239524    0.1000
     44 H44        -7.1098    0.8167   62.5767 H       1  ZINC000512239524    0.1300
     45 H45        -5.7664    1.0682   64.6248 H       1  ZINC000512239524    0.1200
     46 H46        -6.8458    0.9110   66.8324 H       1  ZINC000512239524    0.1200
     47 H47        -9.2689    0.5031   66.9918 H       1  ZINC000512239524    0.1200
     48 H48       -10.6132    0.2562   64.9436 H       1  ZINC000512239524    0.1200
     49 H49        -8.7611    3.4584   61.7905 H       1  ZINC000512239524    0.1300
     50 H50       -10.9312    4.5015   60.9918 H       1  ZINC000512239524    0.1100
     51 H51       -11.6380    2.8204   60.7169 H       1  ZINC000512239524    0.1000
     52 H52       -11.3179    2.2838   63.1753 H       1  ZINC000512239524    0.1100
     53 H53       -10.6111    3.9649   63.4502 H       1  ZINC000512239524    0.1000
     54 H54        -6.5331    2.4698   60.1294 H       1  ZINC000512239524    0.0900
     55 H55        -6.5717    1.3157   58.7740 H       1  ZINC000512239524    0.0700
     56 H56        -5.5081    3.3809   58.0194 H       1  ZINC000512239524    0.0800
     57 H57        -6.8948    4.3422   58.5941 H       1  ZINC000512239524    0.0800
     58 H58        -8.5967    1.1575   53.3670 H       1  ZINC000512239524    0.1400
     59 H59        -8.7002   -1.0900   52.3667 H       1  ZINC000512239524    0.1700
     60 H60        -4.8048   -0.7680   50.9719 H       1  ZINC000512239524    0.1700
@<TRIPOS>BOND
     1     1     2    1
     2     1    33    1
     3     1    34    1
     4     1    35    1
     5     2     3    1
     6     2     4    1
     7     2    26    1
     8     4     5   am
     9     4    36    1
    10     5     6    2
    11     5     7   am
    12     7    25    1
    13     7     8    1
    14     8     9    1
    15     8    37    1
    16     8    38    1
    17     9    10    1
    18     9    39    1
    19     9    40    1
    20    10    11    1
    21    10    24    1
    22    10    41    1
    23    11    12    2
    24    11    13   am
    25    13    14    1
    26    13    21    1
    27    14    15    1
    28    14    42    1
    29    14    43    1
    30    15    20   ar
    31    15    16   ar
    32    16    17   ar
    33    16    44    1
    34    17    18   ar
    35    17    45    1
    36    18    19   ar
    37    18    46    1
    38    19    20   ar
    39    19    47    1
    40    20    48    1
    41    21    23    1
    42    21    22    1
    43    21    49    1
    44    22    23    1
    45    22    50    1
    46    22    51    1
    47    23    52    1
    48    23    53    1
    49    24    25    1
    50    24    54    1
    51    24    55    1
    52    25    56    1
    53    25    57    1
    54    26    31   ar
    55    26    27   ar
    56    27    28   ar
    57    27    58    1
    58    28    29   ar
    59    28    59    1
    60    29    30   ar
    61    30    31   ar
    62    30    60    1
    63    31    32    1
@<TRIPOS>SUBSTRUCTURE
     1 ZINC000512239524        1 TEMP              0 ****  ****    0 ROOT


##########                                Name:    ZINC001490207225
##########                DOCK_Rotatable_Bonds:                   7
##########                         Heavy_Atoms:                  24
##########                    Molecular_Weight:             334.378
##########                DOCK_Rotatable_Bonds:                   7
##########                       Formal_Charge:           -0.010001
##########                     HBond_Acceptors:                   9
##########                        HBond_Donors:                   3
##########                         Heavy_Atoms:                  24
##########                          Grid_Score:          -31.752529
##########                     Grid_vdw_energy:          -28.501587
##########                      Grid_es_energy:           -3.250942
##########           Internal_energy_repulsive:            9.405655

@<TRIPOS>MOLECULE
ZINC001490207225
 46 48 1 0 0
SMALL
USER_CHARGES


@<TRIPOS>ATOM
      1 C1        -11.7975   -0.2208   52.2868 C.3     1  ZINC001490207225    0.0900
      2 N2        -10.4053    0.0566   52.6491 N.pl3   1  ZINC001490207225   -0.3600
      3 C3         -9.9243    1.2376   53.0690 C.2     1  ZINC001490207225    0.1300
      4 C4         -8.5738    1.0740   53.3035 C.2     1  ZINC001490207225   -0.3000
      5 C5         -7.6364    2.1081   53.7782 C.2     1  ZINC001490207225    0.6200
      6 O6         -7.9826    2.8933   54.6398 O.2     1  ZINC001490207225   -0.5400
      7 N7         -6.3956    2.1833   53.2573 N.am    1  ZINC001490207225   -0.6200
      8 C8         -5.3443    3.1461   53.6240 C.3     1  ZINC001490207225    0.1100
      9 C9         -4.5128    3.3862   52.3532 C.3     1  ZINC001490207225   -0.1100
     10 H10        -4.7477    4.3419   51.8845 H       1  ZINC001490207225    0.1000
     11 C11        -3.0142    3.2633   52.7003 C.3     1  ZINC001490207225    0.1000
     12 N12        -2.4364    2.4642   51.5951 N.am    1  ZINC001490207225   -0.6200
     13 C13        -1.2491    2.6386   50.9816 C.2     1  ZINC001490207225    0.5300
     14 O14        -0.9154    1.8944   50.0839 O.2     1  ZINC001490207225   -0.5300
     15 C15        -0.3363    3.7581   51.4109 C.3     1  ZINC001490207225    0.1200
     16 N16         0.5486    3.2847   52.4783 N.am    1  ZINC001490207225   -0.7400
     17 C17         1.7946    3.7858   52.5924 C.2     1  ZINC001490207225    0.7100
     18 N18         2.6081    3.3514   53.5752 N.am    1  ZINC001490207225   -0.8600
     19 O19         2.1847    4.6296   51.8089 O.2     1  ZINC001490207225   -0.5900
     20 C20        -3.4596    1.4300   51.3173 C.3     1  ZINC001490207225    0.1100
     21 C21        -4.8298    2.1851   51.4248 C.3     1  ZINC001490207225   -0.0800
     22 C22        -5.3657    2.6021   50.0538 C.3     1  ZINC001490207225   -0.1300
     23 C23        -5.8249    1.3145   52.2150 C.3     1  ZINC001490207225    0.1000
     24 C24        -8.2582   -0.2701   53.0037 C.2     1  ZINC001490207225    0.0700
     25 N25        -9.3538   -0.8664   52.6215 N.2     1  ZINC001490207225   -0.2900
     26 H26       -12.3444   -0.5489   53.1707 H       1  ZINC001490207225    0.0800
     27 H27       -12.2571    0.6846   51.8905 H       1  ZINC001490207225    0.0900
     28 H28       -11.8266   -1.0044   51.5297 H       1  ZINC001490207225    0.1000
     29 H29       -10.4900    2.1484   53.1992 H       1  ZINC001490207225    0.1900
     30 H30        -5.7937    4.0809   53.9591 H       1  ZINC001490207225    0.0900
     31 H31        -4.7142    2.7304   54.4103 H       1  ZINC001490207225    0.0800
     32 H32        -2.5511    4.2493   52.7383 H       1  ZINC001490207225    0.0900
     33 H33        -2.8857    2.7455   53.6508 H       1  ZINC001490207225    0.0900
     34 H34         0.2624    4.0851   50.5608 H       1  ZINC001490207225    0.1000
     35 H35        -0.9333    4.5932   51.7776 H       1  ZINC001490207225    0.1000
     36 H36         0.2378    2.6106   53.1027 H       1  ZINC001490207225    0.4100
     37 H37         3.5044    3.7129   53.6580 H       1  ZINC001490207225    0.4000
     38 H38         2.2974    2.6773   54.1996 H       1  ZINC001490207225    0.4200
     39 H39        -3.3329    1.0312   50.3109 H       1  ZINC001490207225    0.0900
     40 H40        -3.3999    0.6292   52.0544 H       1  ZINC001490207225    0.0800
     41 H41        -5.5308    1.7145   49.4430 H       1  ZINC001490207225    0.0700
     42 H42        -6.3069    3.1373   50.1789 H       1  ZINC001490207225    0.0600
     43 H43        -4.6410    3.2514   49.5626 H       1  ZINC001490207225    0.0600
     44 H44        -5.3017    0.4830   52.6870 H       1  ZINC001490207225    0.0800
     45 H45        -6.6028    0.9385   51.5503 H       1  ZINC001490207225    0.0900
     46 H46        -7.2820   -0.7253   53.0814 H       1  ZINC001490207225    0.2000
@<TRIPOS>BOND
     1     1     2    1
     2     1    26    1
     3     1    27    1
     4     1    28    1
     5     2    25    1
     6     2     3    1
     7     3     4    2
     8     3    29    1
     9     4     5    1
    10     4    24    1
    11     5     6    2
    12     5     7   am
    13     7    23    1
    14     7     8    1
    15     8     9    1
    16     8    30    1
    17     8    31    1
    18     9    10    1
    19     9    21    1
    20     9    11    1
    21    11    12    1
    22    11    32    1
    23    11    33    1
    24    12    13   am
    25    12    20    1
    26    13    14    2
    27    13    15    1
    28    15    16    1
    29    15    34    1
    30    15    35    1
    31    16    17   am
    32    16    36    1
    33    17    18   am
    34    17    19    2
    35    18    37    1
    36    18    38    1
    37    20    21    1
    38    20    39    1
    39    20    40    1
    40    21    22    1
    41    21    23    1
    42    22    41    1
    43    22    42    1
    44    22    43    1
    45    23    44    1
    46    23    45    1
    47    24    25    2
    48    24    46    1
@<TRIPOS>SUBSTRUCTURE
     1 ZINC001490207225        1 TEMP              0 ****  ****    0 ROOT


##########                                Name:    ZINC001082278299
##########                DOCK_Rotatable_Bonds:                   9
##########                         Heavy_Atoms:                  25
##########                    Molecular_Weight:              346.47
##########                DOCK_Rotatable_Bonds:                   9
##########                       Formal_Charge:           0.0200001
##########                     HBond_Acceptors:                   5
##########                        HBond_Donors:                   1
##########                         Heavy_Atoms:                  25
##########                          Grid_Score:          -31.698555
##########                     Grid_vdw_energy:          -29.428837
##########                      Grid_es_energy:           -2.269717
##########           Internal_energy_repulsive:          105.611847

@<TRIPOS>MOLECULE
ZINC001082278299
 55 57 1 0 0
SMALL
USER_CHARGES


@<TRIPOS>ATOM
      1 C1          4.6365    2.4575   50.9427 C.3     1  ZINC001082278299   -0.1300
      2 C2          3.2185    2.5418   50.4397 C.2     1  ZINC001082278299    0.0000
      3 C3          2.2064    2.5531   51.3023 C.2     1  ZINC001082278299   -0.2300
      4 C4          0.8222    2.6355   50.8113 C.2     1  ZINC001082278299    0.5400
      5 O5          0.6056    2.9090   49.6463 O.2     1  ZINC001082278299   -0.5300
      6 N6         -0.2059    2.4079   51.6525 N.am    1  ZINC001082278299   -0.7400
      7 C7         -1.5844    2.4883   51.1630 C.3     1  ZINC001082278299    0.1300
      8 C8         -2.2971    3.6625   51.8368 C.3     1  ZINC001082278299    0.1400
      9 H9         -1.8396    4.5992   51.5183 H       1  ZINC001082278299    0.0800
     10 C10        -2.1840    3.5271   53.3585 C.3     1  ZINC001082278299   -0.1300
     11 C11        -3.0146    4.6247   54.0275 C.3     1  ZINC001082278299   -0.1200
     12 C12        -4.4853    4.4637   53.6364 C.3     1  ZINC001082278299   -0.1400
     13 C13        -4.6246    4.6098   52.1178 C.3     1  ZINC001082278299    0.1100
     14 N14        -3.7181    3.6563   51.4630 N.am    1  ZINC001082278299   -0.6100
     15 C15        -4.1823    2.7895   50.5413 C.2     1  ZINC001082278299    0.5100
     16 O16        -3.4240    2.0076   50.0079 O.2     1  ZINC001082278299   -0.5100
     17 C17        -5.6437    2.7920   50.1732 C.3     1  ZINC001082278299   -0.1100
     18 C18        -6.4264    2.0403   51.2189 C.2     1  ZINC001082278299   -0.0900
     19 C19        -7.6460    2.4110   51.4732 C.2     1  ZINC001082278299   -0.1800
     20 C20        -8.5060    1.7340   52.5023 C.3     1  ZINC001082278299    0.0900
     21 O21        -7.9438    0.4694   52.8582 O.3     1  ZINC001082278299   -0.3800
     22 C22        -6.5536    0.5494   53.1968 C.3     1  ZINC001082278299    0.0600
     23 C23        -5.7687    0.8863   51.9238 C.3     1  ZINC001082278299   -0.1100
     24 C24         2.9473    2.6135   48.9590 C.3     1  ZINC001082278299   -0.1200
     25 C25         3.9451    1.9272   48.0239 C.3     1  ZINC001082278299   -0.1900
     26 C26         2.5608    1.3151   48.2479 C.3     1  ZINC001082278299   -0.1500
     27 H27         4.9320    1.4113   51.0228 H       1  ZINC001082278299    0.0800
     28 H28         5.3002    2.9701   50.2464 H       1  ZINC001082278299    0.0800
     29 H29         4.7031    2.9299   51.9228 H       1  ZINC001082278299    0.0700
     30 H30         2.4008    2.5017   52.3635 H       1  ZINC001082278299    0.1300
     31 H31        -0.0332    2.1910   52.5820 H       1  ZINC001082278299    0.3900
     32 H32        -1.5784    2.6382   50.0833 H       1  ZINC001082278299    0.0900
     33 H33        -2.1082    1.5619   51.3983 H       1  ZINC001082278299    0.0800
     34 H34        -2.5573    2.5501   53.6656 H       1  ZINC001082278299    0.0700
     35 H35        -1.1403    3.6282   53.6562 H       1  ZINC001082278299    0.0800
     36 H36        -2.9160    4.5457   55.1102 H       1  ZINC001082278299    0.0700
     37 H37        -2.6567    5.6010   53.7008 H       1  ZINC001082278299    0.0700
     38 H38        -4.8370    3.4780   53.9409 H       1  ZINC001082278299    0.0700
     39 H39        -5.0796    5.2315   54.1318 H       1  ZINC001082278299    0.0800
     40 H40        -5.6525    4.3983   51.8231 H       1  ZINC001082278299    0.0900
     41 H41        -4.3592    5.6249   51.8225 H       1  ZINC001082278299    0.0700
     42 H42        -6.0030    3.8197   50.1193 H       1  ZINC001082278299    0.1000
     43 H43        -5.7752    2.3099   49.2045 H       1  ZINC001082278299    0.1000
     44 H44        -8.0590    3.2422   50.9210 H       1  ZINC001082278299    0.1100
     45 H45        -8.5706    2.3635   53.3899 H       1  ZINC001082278299    0.0600
     46 H46        -9.5058    1.5832   52.0951 H       1  ZINC001082278299    0.1000
     47 H47        -6.4019    1.3290   53.9434 H       1  ZINC001082278299    0.0600
     48 H48        -6.2163   -0.4087   53.5920 H       1  ZINC001082278299    0.1000
     49 H49        -5.7495    0.0156   51.2682 H       1  ZINC001082278299    0.0800
     50 H50        -4.7483    1.1629   52.1892 H       1  ZINC001082278299    0.0800
     51 H51         2.4827    3.5359   48.6102 H       1  ZINC001082278299    0.1300
     52 H52         4.1372    2.3979   47.0599 H       1  ZINC001082278299    0.1000
     53 H53         4.7977    1.4237   48.4798 H       1  ZINC001082278299    0.1000
     54 H54         2.5028    0.4090   48.8511 H       1  ZINC001082278299    0.0900
     55 H55         1.8423    1.3832   47.4311 H       1  ZINC001082278299    0.1000
@<TRIPOS>BOND
     1     1     2    1
     2     1    27    1
     3     1    28    1
     4     1    29    1
     5     2     3    2
     6     2    24    1
     7     3     4    1
     8     3    30    1
     9     4     5    2
    10     4     6   am
    11     6     7    1
    12     6    31    1
    13     7     8    1
    14     7    32    1
    15     7    33    1
    16     8     9    1
    17     8    14    1
    18     8    10    1
    19    10    11    1
    20    10    34    1
    21    10    35    1
    22    11    12    1
    23    11    36    1
    24    11    37    1
    25    12    13    1
    26    12    38    1
    27    12    39    1
    28    13    14    1
    29    13    40    1
    30    13    41    1
    31    14    15   am
    32    15    16    2
    33    15    17    1
    34    17    18    1
    35    17    42    1
    36    17    43    1
    37    18    23    1
    38    18    19    2
    39    19    20    1
    40    19    44    1
    41    20    21    1
    42    20    45    1
    43    20    46    1
    44    21    22    1
    45    22    23    1
    46    22    47    1
    47    22    48    1
    48    23    49    1
    49    23    50    1
    50    24    26    1
    51    24    25    1
    52    24    51    1
    53    25    26    1
    54    25    52    1
    55    25    53    1
    56    26    54    1
    57    26    55    1
@<TRIPOS>SUBSTRUCTURE
     1 ZINC001082278299        1 TEMP              0 ****  ****    0 ROOT


##########                                Name:    ZINC000952280524
##########                DOCK_Rotatable_Bonds:                   9
##########                         Heavy_Atoms:                  25
##########                    Molecular_Weight:             348.486
##########                DOCK_Rotatable_Bonds:                   9
##########                       Formal_Charge:          -0.0100004
##########                     HBond_Acceptors:                   5
##########                        HBond_Donors:                   1
##########                         Heavy_Atoms:                  25
##########                          Grid_Score:          -31.678551
##########                     Grid_vdw_energy:          -30.853361
##########                      Grid_es_energy:           -0.825190
##########           Internal_energy_repulsive:           21.677683

@<TRIPOS>MOLECULE
ZINC000952280524
 57 59 1 0 0
SMALL
USER_CHARGES


@<TRIPOS>ATOM
      1 C1          2.0329    1.5976   48.5908 C.3     1  ZINC000952280524   -0.1800
      2 C2          1.9664    2.7242   49.6238 C.3     1  ZINC000952280524    0.1400
      3 C3          3.3022    2.8169   50.3640 C.3     1  ZINC000952280524   -0.1900
      4 O4          1.7018    3.9626   48.9617 O.3     1  ZINC000952280524   -0.5500
      5 C5          0.8474    2.4322   50.6256 C.3     1  ZINC000952280524   -0.1200
      6 C6          0.3307    3.7289   51.1936 C.2     1  ZINC000952280524    0.5300
      7 O7          1.0986    4.6392   51.4228 O.2     1  ZINC000952280524   -0.5100
      8 N8         -0.9848    3.8769   51.4468 N.am    1  ZINC000952280524   -0.6300
      9 C9         -1.6210    5.0823   51.9981 C.3     1  ZINC000952280524    0.1000
     10 C10        -3.1281    4.7814   52.1386 C.3     1  ZINC000952280524   -0.1300
     11 C11        -3.1697    3.2312   52.1895 C.3     1  ZINC000952280524   -0.1000
     12 H12        -2.9616    2.8676   53.1958 H       1  ZINC000952280524    0.0900
     13 C13        -4.5137    2.7019   51.6853 C.3     1  ZINC000952280524   -0.0700
     14 C14        -4.3880    1.2098   51.3694 C.3     1  ZINC000952280524   -0.1300
     15 C15        -5.7257    0.6911   50.8322 C.3     1  ZINC000952280524    0.1100
     16 N16        -6.7820    1.0159   51.8004 N.am    1  ZINC000952280524   -0.6100
     17 C17        -7.5982    0.0540   52.2747 C.2     1  ZINC000952280524    0.5500
     18 O18        -7.4641   -1.0957   51.9016 O.2     1  ZINC000952280524   -0.5500
     19 C19        -8.6512    0.3948   53.2438 C.2     1  ZINC000952280524   -0.2200
     20 C20        -9.9133    0.0517   53.0024 C.2     1  ZINC000952280524   -0.0300
     21 C21       -10.9918    0.3993   53.9959 C.3     1  ZINC000952280524   -0.1500
     22 C22       -12.2835   -0.4193   53.9514 C.3     1  ZINC000952280524   -0.1700
     23 C23       -11.2910   -0.6184   55.0986 C.3     1  ZINC000952280524   -0.1600
     24 C24        -6.9312    2.4093   52.2422 C.3     1  ZINC000952280524    0.1000
     25 C25        -5.5800    2.9086   52.7635 C.3     1  ZINC000952280524   -0.1300
     26 C26        -2.0250    2.8592   51.2108 C.3     1  ZINC000952280524    0.1100
     27 H27         2.3208    0.6691   49.0838 H       1  ZINC000952280524    0.0700
     28 H28         1.0553    1.4735   48.1250 H       1  ZINC000952280524    0.0600
     29 H29         2.7700    1.8474   47.8277 H       1  ZINC000952280524    0.0600
     30 H30         4.0994    3.0250   49.6504 H       1  ZINC000952280524    0.0600
     31 H31         3.2548    3.6196   51.1000 H       1  ZINC000952280524    0.0800
     32 H32         3.5041    1.8723   50.8691 H       1  ZINC000952280524    0.0600
     33 H33         2.3496    4.1909   48.2811 H       1  ZINC000952280524    0.3700
     34 H34         0.0360    1.9075   50.1212 H       1  ZINC000952280524    0.1000
     35 H35         1.2354    1.8110   51.4329 H       1  ZINC000952280524    0.1000
     36 H36        -1.1960    5.3117   52.9752 H       1  ZINC000952280524    0.0700
     37 H37        -1.4724    5.9228   51.3202 H       1  ZINC000952280524    0.0700
     38 H38        -3.5221    5.2082   53.0609 H       1  ZINC000952280524    0.0800
     39 H39        -3.6779    5.1538   51.2742 H       1  ZINC000952280524    0.0800
     40 H40        -4.8009    3.2411   50.7825 H       1  ZINC000952280524    0.0800
     41 H41        -3.6121    1.0610   50.6183 H       1  ZINC000952280524    0.0800
     42 H42        -4.1252    0.6665   52.2771 H       1  ZINC000952280524    0.0700
     43 H43        -5.9458    1.1685   49.8774 H       1  ZINC000952280524    0.0700
     44 H44        -5.6717   -0.3895   50.6991 H       1  ZINC000952280524    0.0900
     45 H45        -8.3994    0.9236   54.1511 H       1  ZINC000952280524    0.1300
     46 H46       -10.1652   -0.4759   52.0944 H       1  ZINC000952280524    0.1300
     47 H47       -11.0736    1.4559   54.2506 H       1  ZINC000952280524    0.1200
     48 H48       -13.2157    0.0988   54.1767 H       1  ZINC000952280524    0.1000
     49 H49       -12.3534   -1.2092   53.2036 H       1  ZINC000952280524    0.1000
     50 H50       -10.7077   -1.5393   55.1054 H       1  ZINC000952280524    0.1000
     51 H51       -11.5700   -0.2312   56.0786 H       1  ZINC000952280524    0.1000
     52 H52        -7.2497    3.0267   51.4024 H       1  ZINC000952280524    0.0700
     53 H53        -7.6726    2.4624   53.0394 H       1  ZINC000952280524    0.0900
     54 H54        -5.3060    2.3495   53.6581 H       1  ZINC000952280524    0.0700
     55 H55        -5.6526    3.9691   53.0048 H       1  ZINC000952280524    0.0800
     56 H56        -2.3780    2.9017   50.1805 H       1  ZINC000952280524    0.0700
     57 H57        -1.6382    1.8661   51.4395 H       1  ZINC000952280524    0.0800
@<TRIPOS>BOND
     1     1     2    1
     2     1    27    1
     3     1    28    1
     4     1    29    1
     5     2     3    1
     6     2     4    1
     7     2     5    1
     8     3    30    1
     9     3    31    1
    10     3    32    1
    11     4    33    1
    12     5     6    1
    13     5    34    1
    14     5    35    1
    15     6     7    2
    16     6     8   am
    17     8    26    1
    18     8     9    1
    19     9    10    1
    20     9    36    1
    21     9    37    1
    22    10    11    1
    23    10    38    1
    24    10    39    1
    25    11    12    1
    26    11    13    1
    27    11    26    1
    28    13    25    1
    29    13    14    1
    30    13    40    1
    31    14    15    1
    32    14    41    1
    33    14    42    1
    34    15    16    1
    35    15    43    1
    36    15    44    1
    37    16    17   am
    38    16    24    1
    39    17    18    2
    40    17    19    1
    41    19    20    2
    42    19    45    1
    43    20    21    1
    44    20    46    1
    45    21    23    1
    46    21    22    1
    47    21    47    1
    48    22    23    1
    49    22    48    1
    50    22    49    1
    51    23    50    1
    52    23    51    1
    53    24    25    1
    54    24    52    1
    55    24    53    1
    56    25    54    1
    57    25    55    1
    58    26    56    1
    59    26    57    1
@<TRIPOS>SUBSTRUCTURE
     1 ZINC000952280524        1 TEMP              0 ****  ****    0 ROOT


##########                                Name:    ZINC000188380122
##########                DOCK_Rotatable_Bonds:                   6
##########                         Heavy_Atoms:                  27
##########                    Molecular_Weight:             396.433
##########                DOCK_Rotatable_Bonds:                   6
##########                       Formal_Charge:           0.0299998
##########                     HBond_Acceptors:                   8
##########                        HBond_Donors:                   1
##########                         Heavy_Atoms:                  27
##########                          Grid_Score:          -31.654486
##########                     Grid_vdw_energy:          -31.245724
##########                      Grid_es_energy:           -0.408762
##########           Internal_energy_repulsive:            8.797829

@<TRIPOS>MOLECULE
ZINC000188380122
 46 49 1 0 0
SMALL
USER_CHARGES


@<TRIPOS>ATOM
      1 O1         -9.2144   -1.1046   53.0470 O.2     1  ZINC000188380122   -0.5200
      2 C2         -9.3200    0.1002   52.9555 C.2     1  ZINC000188380122    0.5200
      3 C3        -10.5223    0.7975   53.5380 C.3     1  ZINC000188380122   -0.0700
      4 C4        -11.0300    0.0176   54.7234 C.2     1  ZINC000188380122    0.0900
      5 C5        -12.0211   -0.8737   54.6155 C.2     1  ZINC000188380122   -0.2400
      6 S6        -12.3173   -1.5640   56.2099 S.3     1  ZINC000188380122    0.1000
      7 C7        -11.0393   -0.5530   56.8796 C.2     1  ZINC000188380122    0.1100
      8 C8        -10.6168   -0.5303   58.2965 C.ar    1  ZINC000188380122   -0.0200
      9 C9        -11.2587   -1.3426   59.2320 C.ar    1  ZINC000188380122   -0.0400
     10 C10       -10.8594   -1.3170   60.5526 C.ar    1  ZINC000188380122   -0.1200
     11 C11        -9.8255   -0.4881   60.9498 C.ar    1  ZINC000188380122   -0.0600
     12 C12        -9.1850    0.3199   60.0269 C.ar    1  ZINC000188380122   -0.1800
     13 C13        -8.0593    1.2193   60.4684 C.3     1  ZINC000188380122    0.5100
     14 F14        -7.3173    0.5813   61.4682 F       1  ZINC000188380122   -0.1700
     15 F15        -7.2292    1.4976   59.3772 F       1  ZINC000188380122   -0.1700
     16 F16        -8.5867    2.4143   60.9698 F       1  ZINC000188380122   -0.1700
     17 C17        -9.5708    0.2995   58.7027 C.ar    1  ZINC000188380122   -0.0500
     18 N18       -10.5228    0.1670   55.9253 N.2     1  ZINC000188380122   -0.4300
     19 N19        -8.3595    0.8160   52.3379 N.am    1  ZINC000188380122   -0.7200
     20 C20        -7.1907    0.1382   51.7717 C.3     1  ZINC000188380122    0.1300
     21 H21        -7.4420   -0.8037   51.2839 H       1  ZINC000188380122    0.1200
     22 C22        -6.0061    0.0306   52.7483 C.3     1  ZINC000188380122   -0.1800
     23 C23        -5.1065    0.3256   51.5424 C.3     1  ZINC000188380122    0.0900
     24 H24        -4.8578   -0.5824   50.9929 H       1  ZINC000188380122    0.1200
     25 O25        -3.9601    1.0911   51.8167 O.3     1  ZINC000188380122   -0.3700
     26 C26        -4.1018    2.4481   52.1938 C.3     1  ZINC000188380122    0.0700
     27 C27        -5.0590    3.1782   51.2529 C.3     1  ZINC000188380122   -0.1600
     28 C28        -6.4347    2.5100   51.3397 C.3     1  ZINC000188380122   -0.1100
     29 C29        -6.2962    1.0583   50.9162 C.3     1  ZINC000188380122   -0.1500
     30 H30        -6.3994    0.9101   49.8413 H       1  ZINC000188380122    0.0900
     31 H31       -10.2412    1.8012   53.8569 H       1  ZINC000188380122    0.1100
     32 H32       -11.3060    0.8622   52.7831 H       1  ZINC000188380122    0.1100
     33 H33       -12.5491   -1.1266   53.7080 H       1  ZINC000188380122    0.1800
     34 H34       -12.0664   -1.9896   58.9233 H       1  ZINC000188380122    0.1500
     35 H35       -11.3552   -1.9452   61.2777 H       1  ZINC000188380122    0.1400
     36 H36        -9.5172   -0.4713   61.9847 H       1  ZINC000188380122    0.1500
     37 H37        -9.0700    0.9305   57.9833 H       1  ZINC000188380122    0.1400
     38 H38        -8.4422    1.7800   52.2682 H       1  ZINC000188380122    0.4000
     39 H39        -5.9917    0.8127   53.5076 H       1  ZINC000188380122    0.0900
     40 H40        -5.8695   -0.9680   53.1632 H       1  ZINC000188380122    0.0800
     41 H41        -4.4909    2.4987   53.2107 H       1  ZINC000188380122    0.0500
     42 H42        -3.1263    2.9332   52.1598 H       1  ZINC000188380122    0.1000
     43 H43        -5.1402    4.2232   51.5523 H       1  ZINC000188380122    0.0800
     44 H44        -4.6858    3.1159   50.2306 H       1  ZINC000188380122    0.0800
     45 H45        -6.8004    2.5587   52.3653 H       1  ZINC000188380122    0.0700
     46 H46        -7.1319    3.0216   50.6763 H       1  ZINC000188380122    0.0800
@<TRIPOS>BOND
     1     1     2    2
     2     2     3    1
     3     2    19   am
     4     3     4    1
     5     3    31    1
     6     3    32    1
     7     4    18    1
     8     4     5    2
     9     5     6    1
    10     5    33    1
    11     6     7    1
    12     7     8    1
    13     7    18    2
    14     8    17   ar
    15     8     9   ar
    16     9    10   ar
    17     9    34    1
    18    10    11   ar
    19    10    35    1
    20    11    12   ar
    21    11    36    1
    22    12    13    1
    23    12    17   ar
    24    13    14    1
    25    13    15    1
    26    13    16    1
    27    17    37    1
    28    19    20    1
    29    19    38    1
    30    20    21    1
    31    20    29    1
    32    20    22    1
    33    22    23    1
    34    22    39    1
    35    22    40    1
    36    23    24    1
    37    23    29    1
    38    23    25    1
    39    25    26    1
    40    26    27    1
    41    26    41    1
    42    26    42    1
    43    27    28    1
    44    27    43    1
    45    27    44    1
    46    28    29    1
    47    28    45    1
    48    28    46    1
    49    29    30    1
@<TRIPOS>SUBSTRUCTURE
     1 ZINC000188380122        1 TEMP              0 ****  ****    0 ROOT


##########                                Name:    ZINC000509132103
##########                DOCK_Rotatable_Bonds:                   7
##########                         Heavy_Atoms:                  29
##########                    Molecular_Weight:              405.52
##########                DOCK_Rotatable_Bonds:                   7
##########                       Formal_Charge:          -0.0499998
##########                     HBond_Acceptors:                   6
##########                        HBond_Donors:                   0
##########                         Heavy_Atoms:                  29
##########                          Grid_Score:          -31.641100
##########                     Grid_vdw_energy:          -30.513805
##########                      Grid_es_energy:           -1.127294
##########           Internal_energy_repulsive:           19.217016

@<TRIPOS>MOLECULE
ZINC000509132103
 52 55 1 0 0
SMALL
USER_CHARGES


@<TRIPOS>ATOM
      1 C1        -15.9183   -2.4506   48.0975 C.3     1  ZINC000509132103    0.0300
      2 O2        -15.0902   -2.1042   49.2095 O.3     1  ZINC000509132103   -0.3000
      3 C3        -14.4535   -0.9072   49.1541 C.ar    1  ZINC000509132103    0.2700
      4 C4        -14.6049   -0.0858   48.0402 C.ar    1  ZINC000509132103   -0.1300
      5 C5        -13.9334    1.1275   48.0319 C.ar    1  ZINC000509132103   -0.0700
      6 C6        -13.1528    1.4480   49.1328 C.ar    1  ZINC000509132103    0.0500
      7 C7        -12.4040    2.7552   49.1713 C.3     1  ZINC000509132103   -0.0500
      8 S8        -12.1334    3.2466   50.8963 S.3     1  ZINC000509132103   -0.1500
      9 C9        -11.1710    4.7762   50.7388 C.3     1  ZINC000509132103   -0.1300
     10 C10        -9.7668    4.4436   50.3046 C.2     1  ZINC000509132103    0.5400
     11 O11        -9.4216    4.6472   49.1599 O.2     1  ZINC000509132103   -0.5100
     12 N12        -8.8943    3.9200   51.1884 N.am    1  ZINC000509132103   -0.6100
     13 C13        -7.5207    3.5854   50.7974 C.3     1  ZINC000509132103    0.1500
     14 C14        -7.1491    2.2340   51.3542 C.ar    1  ZINC000509132103   -0.1000
     15 C15        -5.9829    1.6412   50.8909 C.ar    1  ZINC000509132103   -0.1100
     16 C16        -5.5847    0.4099   51.3704 C.ar    1  ZINC000509132103   -0.1200
     17 C17        -6.3529   -0.2367   52.3203 C.ar    1  ZINC000509132103   -0.1200
     18 C18        -7.5143    0.3499   52.7786 C.ar    1  ZINC000509132103   -0.1100
     19 C19        -7.9208    1.5866   52.2933 C.ar    1  ZINC000509132103   -0.0600
     20 C20        -9.2133    2.1528   52.8197 C.3     1  ZINC000509132103   -0.0200
     21 H21       -10.0487    1.6723   52.3107 H       1  ZINC000509132103    0.1000
     22 C22        -9.3092    1.8775   54.2983 C.ar    1  ZINC000509132103   -0.0800
     23 C23        -8.3488    2.3768   55.1580 C.ar    1  ZINC000509132103   -0.1100
     24 C24        -8.4369    2.1242   56.5143 C.ar    1  ZINC000509132103   -0.1200
     25 C25        -9.4855    1.3727   57.0108 C.ar    1  ZINC000509132103   -0.1200
     26 C26       -10.4463    0.8742   56.1510 C.ar    1  ZINC000509132103   -0.1200
     27 C27       -10.3607    1.1304   54.7954 C.ar    1  ZINC000509132103   -0.1100
     28 C28        -9.2800    3.6667   52.5865 C.3     1  ZINC000509132103    0.1200
     29 N29       -13.0665    0.6086   50.1459 N.ar    1  ZINC000509132103   -0.1900
     30 N30       -13.6903   -0.5131   50.1612 N.ar    1  ZINC000509132103   -0.3000
     31 H31       -15.3144   -2.4817   47.1906 H       1  ZINC000509132103    0.0600
     32 H32       -16.3666   -3.4292   48.2693 H       1  ZINC000509132103    0.1000
     33 H33       -16.7054   -1.7051   47.9846 H       1  ZINC000509132103    0.0600
     34 H34       -15.2257   -0.3844   47.2083 H       1  ZINC000509132103    0.1600
     35 H35       -14.0154    1.8027   47.1930 H       1  ZINC000509132103    0.1600
     36 H36       -11.4423    2.6379   48.6718 H       1  ZINC000509132103    0.1100
     37 H37       -12.9867    3.5228   48.6620 H       1  ZINC000509132103    0.1000
     38 H38       -11.6372    5.4238   49.9963 H       1  ZINC000509132103    0.1100
     39 H39       -11.1423    5.2881   51.7007 H       1  ZINC000509132103    0.1100
     40 H40        -7.4486    3.5619   49.7100 H       1  ZINC000509132103    0.1000
     41 H41        -6.8381    4.3395   51.1892 H       1  ZINC000509132103    0.0900
     42 H42        -5.3826    2.1472   50.1493 H       1  ZINC000509132103    0.1200
     43 H43        -4.6766   -0.0464   51.0052 H       1  ZINC000509132103    0.1300
     44 H44        -6.0449   -1.1987   52.7023 H       1  ZINC000509132103    0.1200
     45 H45        -8.1131   -0.1569   53.5209 H       1  ZINC000509132103    0.1200
     46 H46        -7.5295    2.9639   54.7701 H       1  ZINC000509132103    0.1200
     47 H47        -7.6861    2.5137   57.1859 H       1  ZINC000509132103    0.1200
     48 H48        -9.5539    1.1748   58.0703 H       1  ZINC000509132103    0.1200
     49 H49       -11.2655    0.2868   56.5389 H       1  ZINC000509132103    0.1200
     50 H50       -11.1114    0.7408   54.1237 H       1  ZINC000509132103    0.1200
     51 H51        -8.5918    4.1746   53.2621 H       1  ZINC000509132103    0.0800
     52 H52       -10.2961    4.0218   52.7586 H       1  ZINC000509132103    0.1000
@<TRIPOS>BOND
     1     1     2    1
     2     1    31    1
     3     1    32    1
     4     1    33    1
     5     2     3    1
     6     3    30   ar
     7     3     4   ar
     8     4     5   ar
     9     4    34    1
    10     5     6   ar
    11     5    35    1
    12     6     7    1
    13     6    29   ar
    14     7     8    1
    15     7    36    1
    16     7    37    1
    17     8     9    1
    18     9    10    1
    19     9    38    1
    20     9    39    1
    21    10    11    2
    22    10    12   am
    23    12    28    1
    24    12    13    1
    25    13    14    1
    26    13    40    1
    27    13    41    1
    28    14    19   ar
    29    14    15   ar
    30    15    16   ar
    31    15    42    1
    32    16    17   ar
    33    16    43    1
    34    17    18   ar
    35    17    44    1
    36    18    19   ar
    37    18    45    1
    38    19    20    1
    39    20    21    1
    40    20    22    1
    41    20    28    1
    42    22    27   ar
    43    22    23   ar
    44    23    24   ar
    45    23    46    1
    46    24    25   ar
    47    24    47    1
    48    25    26   ar
    49    25    48    1
    50    26    27   ar
    51    26    49    1
    52    27    50    1
    53    28    51    1
    54    28    52    1
    55    29    30   ar
@<TRIPOS>SUBSTRUCTURE
     1 ZINC000509132103        1 TEMP              0 ****  ****    0 ROOT


##########                                Name:    ZINC001408567397
##########                DOCK_Rotatable_Bonds:                   9
##########                         Heavy_Atoms:                  24
##########                    Molecular_Weight:             336.434
##########                DOCK_Rotatable_Bonds:                   9
##########                       Formal_Charge:          -0.0199996
##########                     HBond_Acceptors:                   7
##########                        HBond_Donors:                   2
##########                         Heavy_Atoms:                  24
##########                          Grid_Score:          -31.623920
##########                     Grid_vdw_energy:          -30.677023
##########                      Grid_es_energy:           -0.946897
##########           Internal_energy_repulsive:           15.979804

@<TRIPOS>MOLECULE
ZINC001408567397
 52 53 1 0 0
SMALL
USER_CHARGES


@<TRIPOS>ATOM
      1 C1         -8.2675    4.2841   52.0569 C.3     1  ZINC001408567397   -0.0800
      2 C2         -7.8753    2.8610   52.3606 C.2     1  ZINC001408567397    0.0900
      3 N3         -8.2049    2.1863   53.4320 N.2     1  ZINC001408567397   -0.2900
      4 N4         -7.6454    0.9060   53.3324 N.pl3   1  ZINC001408567397   -0.4700
      5 C5         -6.9702    0.8373   52.1660 C.2     1  ZINC001408567397    0.1100
      6 C6         -6.2117   -0.3571   51.6474 C.3     1  ZINC001408567397   -0.1000
      7 C7         -7.1010    2.0314   51.5429 C.2     1  ZINC001408567397   -0.2200
      8 C8         -6.5095    2.4043   50.2080 C.3     1  ZINC001408567397   -0.0600
      9 C9         -5.0467    2.7238   50.3783 C.2     1  ZINC001408567397    0.5100
     10 O10        -4.2124    2.0895   49.7680 O.2     1  ZINC001408567397   -0.5300
     11 N11        -4.6655    3.7144   51.2089 N.am    1  ZINC001408567397   -0.7300
     12 C12        -3.2434    4.0261   51.3732 C.3     1  ZINC001408567397    0.1100
     13 C13        -2.6585    3.1640   52.4936 C.3     1  ZINC001408567397    0.1000
     14 N14        -1.2315    3.4598   52.6430 N.am    1  ZINC001408567397   -0.6200
     15 C15        -0.7830    4.4062   53.6676 C.3     1  ZINC001408567397    0.0700
     16 C16        -0.3312    2.8615   51.8380 C.2     1  ZINC001408567397    0.5100
     17 O17        -0.7027    2.0793   50.9890 O.2     1  ZINC001408567397   -0.5300
     18 C18         1.1368    3.1645   51.9930 C.3     1  ZINC001408567397   -0.1300
     19 C19         1.9581    2.0800   51.2929 C.3     1  ZINC001408567397   -0.1100
     20 H20         1.4710    1.1136   51.4226 H       1  ZINC001408567397    0.0900
     21 C21         2.0652    2.4029   49.7994 C.3     1  ZINC001408567397   -0.1200
     22 C22         2.9535    1.3538   49.1238 C.3     1  ZINC001408567397   -0.1600
     23 C23         4.3202    1.3332   49.8132 C.3     1  ZINC001408567397    0.0600
     24 O24         4.1463    1.0581   51.2046 O.3     1  ZINC001408567397   -0.3800
     25 C25         3.3628    2.0304   51.8996 C.3     1  ZINC001408567397    0.0600
     26 H26        -9.2140    4.2926   51.5164 H       1  ZINC001408567397    0.0800
     27 H27        -8.3766    4.8378   52.9894 H       1  ZINC001408567397    0.0700
     28 H28        -7.4955    4.7511   51.4453 H       1  ZINC001408567397    0.0800
     29 H29        -7.7285    0.1944   53.9865 H       1  ZINC001408567397    0.4400
     30 H30        -6.8783   -0.9798   51.0509 H       1  ZINC001408567397    0.0800
     31 H31        -5.3801   -0.0190   51.0292 H       1  ZINC001408567397    0.0900
     32 H32        -5.8280   -0.9364   52.4873 H       1  ZINC001408567397    0.0700
     33 H33        -6.6210    1.5701   49.5154 H       1  ZINC001408567397    0.1000
     34 H34        -7.0283    3.2772   49.8118 H       1  ZINC001408567397    0.1000
     35 H35        -5.3326    4.2209   51.6980 H       1  ZINC001408567397    0.4000
     36 H36        -2.7161    3.8187   50.4421 H       1  ZINC001408567397    0.0700
     37 H37        -3.1296    5.0797   51.6283 H       1  ZINC001408567397    0.0700
     38 H38        -3.1748    3.3833   53.4281 H       1  ZINC001408567397    0.0800
     39 H39        -2.7870    2.1103   52.2461 H       1  ZINC001408567397    0.0900
     40 H40        -0.5824    3.8698   54.5948 H       1  ZINC001408567397    0.0600
     41 H41         0.1272    4.9022   53.3305 H       1  ZINC001408567397    0.0800
     42 H42        -1.5602    5.1509   53.8394 H       1  ZINC001408567397    0.0800
     43 H43         1.3572    4.1333   51.5448 H       1  ZINC001408567397    0.1000
     44 H44         1.3932    3.1874   53.0522 H       1  ZINC001408567397    0.1000
     45 H45         1.0723    2.3839   49.3502 H       1  ZINC001408567397    0.0700
     46 H46         2.5061    3.3914   49.6707 H       1  ZINC001408567397    0.0600
     47 H47         2.4875    0.3721   49.2096 H       1  ZINC001408567397    0.0700
     48 H48         3.0802    1.6070   48.0712 H       1  ZINC001408567397    0.0700
     49 H49         4.9421    0.5588   49.3644 H       1  ZINC001408567397    0.0900
     50 H50         4.8030    2.3030   49.6920 H       1  ZINC001408567397    0.0500
     51 H51         3.8323    3.0097   51.8063 H       1  ZINC001408567397    0.0400
     52 H52         3.2961    1.7580   52.9529 H       1  ZINC001408567397    0.1100
@<TRIPOS>BOND
     1     1     2    1
     2     1    26    1
     3     1    27    1
     4     1    28    1
     5     2     7    1
     6     2     3    2
     7     3     4    1
     8     4     5    1
     9     4    29    1
    10     5     6    1
    11     5     7    2
    12     6    30    1
    13     6    31    1
    14     6    32    1
    15     7     8    1
    16     8     9    1
    17     8    33    1
    18     8    34    1
    19     9    10    2
    20     9    11   am
    21    11    12    1
    22    11    35    1
    23    12    13    1
    24    12    36    1
    25    12    37    1
    26    13    14    1
    27    13    38    1
    28    13    39    1
    29    14    15    1
    30    14    16   am
    31    15    40    1
    32    15    41    1
    33    15    42    1
    34    16    17    2
    35    16    18    1
    36    18    19    1
    37    18    43    1
    38    18    44    1
    39    19    20    1
    40    19    25    1
    41    19    21    1
    42    21    22    1
    43    21    45    1
    44    21    46    1
    45    22    23    1
    46    22    47    1
    47    22    48    1
    48    23    24    1
    49    23    49    1
    50    23    50    1
    51    24    25    1
    52    25    51    1
    53    25    52    1
@<TRIPOS>SUBSTRUCTURE
     1 ZINC001408567397        1 TEMP              0 ****  ****    0 ROOT


##########                                Name:    ZINC000195331548
##########                DOCK_Rotatable_Bonds:                   7
##########                         Heavy_Atoms:                  26
##########                    Molecular_Weight:             378.539
##########                DOCK_Rotatable_Bonds:                   7
##########                       Formal_Charge:          -0.0100004
##########                     HBond_Acceptors:                   7
##########                        HBond_Donors:                   2
##########                         Heavy_Atoms:                  26
##########                          Grid_Score:          -31.613098
##########                     Grid_vdw_energy:          -29.525484
##########                      Grid_es_energy:           -2.087613
##########           Internal_energy_repulsive:           27.104322

@<TRIPOS>MOLECULE
ZINC000195331548
 56 58 1 0 0
SMALL
USER_CHARGES


@<TRIPOS>ATOM
      1 C1          3.0192    0.2931   44.7439 C.3     1  ZINC000195331548   -0.0800
      2 C2          3.3597    1.5530   45.4972 C.2     1  ZINC000195331548    0.0700
      3 C3          4.3409    2.3782   45.1199 C.2     1  ZINC000195331548   -0.2600
      4 S4          4.3932    3.7173   46.2639 S.3     1  ZINC000195331548    0.1100
      5 C5          3.0961    3.0301   47.1406 C.2     1  ZINC000195331548    0.0600
      6 C6          2.4833    3.6248   48.3824 C.3     1  ZINC000195331548   -0.0100
      7 H7          1.7820    4.4108   48.1021 H       1  ZINC000195331548    0.1100
      8 C8          3.5868    4.2149   49.2647 C.3     1  ZINC000195331548   -0.1200
      9 C9          2.9626    4.7630   50.5510 C.3     1  ZINC000195331548   -0.1100
     10 C10         2.2092    3.6390   51.2658 C.3     1  ZINC000195331548    0.0500
     11 N11         1.1643    3.1084   50.3808 N.3     1  ZINC000195331548   -0.5200
     12 C12         0.3308    2.1228   51.0823 C.3     1  ZINC000195331548    0.0400
     13 C13        -1.0547    2.1241   50.4897 C.2     1  ZINC000195331548    0.5100
     14 O14        -1.1999    2.0647   49.2876 O.2     1  ZINC000195331548   -0.4400
     15 N15        -2.1325    2.1914   51.2962 N.am    1  ZINC000195331548   -0.7000
     16 C16        -3.3716    2.1942   50.7663 C.2     1  ZINC000195331548    0.6900
     17 O17        -3.5172    2.1375   49.5609 O.2     1  ZINC000195331548   -0.5300
     18 N18        -4.4494    2.2598   51.5728 N.am    1  ZINC000195331548   -0.7300
     19 C19        -5.7964    2.2610   50.9967 C.3     1  ZINC000195331548    0.1700
     20 H20        -5.7435    1.9672   49.9484 H       1  ZINC000195331548    0.0900
     21 C21        -6.3954    3.6648   51.1033 C.3     1  ZINC000195331548   -0.1300
     22 C22        -6.4696    4.0773   52.5748 C.3     1  ZINC000195331548   -0.1200
     23 C23        -7.3516    3.0872   53.3381 C.3     1  ZINC000195331548   -0.1200
     24 C24        -6.7527    1.6833   53.2315 C.3     1  ZINC000195331548   -0.1100
     25 C25        -6.6785    1.2709   51.7600 C.3     1  ZINC000195331548   -0.1000
     26 H26        -7.6806    1.2719   51.3314 H       1  ZINC000195331548    0.0900
     27 C27        -6.0794   -0.1329   51.6534 C.3     1  ZINC000195331548   -0.1500
     28 C28         1.7438    2.5338   49.1601 C.3     1  ZINC000195331548    0.0600
     29 N29         2.7141    1.9315   46.5820 N.2     1  ZINC000195331548   -0.4700
     30 H30         2.2717    0.5158   43.9824 H       1  ZINC000195331548    0.0800
     31 H31         3.9175   -0.0993   44.2673 H       1  ZINC000195331548    0.0800
     32 H32         2.6220   -0.4486   45.4369 H       1  ZINC000195331548    0.0800
     33 H33         4.9854    2.2491   44.2630 H       1  ZINC000195331548    0.1800
     34 H34         4.3094    3.4376   49.5130 H       1  ZINC000195331548    0.0600
     35 H35         4.0886    5.0213   48.7299 H       1  ZINC000195331548    0.0700
     36 H36         3.7481    5.1461   51.2022 H       1  ZINC000195331548    0.0800
     37 H37         2.2688    5.5670   50.3049 H       1  ZINC000195331548    0.0800
     38 H38         1.7515    4.0293   52.1748 H       1  ZINC000195331548    0.0800
     39 H39         2.9060    2.8416   51.5237 H       1  ZINC000195331548    0.0400
     40 H40         0.2741    2.3819   52.1396 H       1  ZINC000195331548    0.1200
     41 H41         0.7713    1.1317   50.9742 H       1  ZINC000195331548    0.0700
     42 H42        -2.0163    2.2378   52.2581 H       1  ZINC000195331548    0.4100
     43 H43        -4.3333    2.3062   52.5347 H       1  ZINC000195331548    0.4000
     44 H44        -7.3976    3.6658   50.6747 H       1  ZINC000195331548    0.0700
     45 H45        -5.7671    4.3703   50.5595 H       1  ZINC000195331548    0.0700
     46 H46        -6.8964    5.0774   52.6508 H       1  ZINC000195331548    0.0600
     47 H47        -5.4675    4.0764   53.0034 H       1  ZINC000195331548    0.0600
     48 H48        -7.4045    3.3810   54.3864 H       1  ZINC000195331548    0.0600
     49 H49        -8.3538    3.0881   52.9095 H       1  ZINC000195331548    0.0600
     50 H50        -5.7505    1.6824   53.6601 H       1  ZINC000195331548    0.0600
     51 H51        -7.3810    0.9779   53.7752 H       1  ZINC000195331548    0.0700
     52 H52        -5.0772   -0.1339   52.0819 H       1  ZINC000195331548    0.0500
     53 H53        -6.7078   -0.8383   52.1972 H       1  ZINC000195331548    0.0600
     54 H54        -6.0265   -0.4267   50.6051 H       1  ZINC000195331548    0.0600
     55 H55         2.4429    1.7415   49.4279 H       1  ZINC000195331548    0.0400
     56 H56         0.9481    2.1214   48.5396 H       1  ZINC000195331548    0.0900
@<TRIPOS>BOND
     1     1     2    1
     2     1    30    1
     3     1    31    1
     4     1    32    1
     5     2    29    1
     6     2     3    2
     7     3     4    1
     8     3    33    1
     9     4     5    1
    10     5     6    1
    11     5    29    2
    12     6     7    1
    13     6    28    1
    14     6     8    1
    15     8     9    1
    16     8    34    1
    17     8    35    1
    18     9    10    1
    19     9    36    1
    20     9    37    1
    21    10    11    1
    22    10    38    1
    23    10    39    1
    24    11    12    1
    25    11    28    1
    26    12    13    1
    27    12    40    1
    28    12    41    1
    29    13    14    2
    30    13    15   am
    31    15    16   am
    32    15    42    1
    33    16    17    2
    34    16    18   am
    35    18    19    1
    36    18    43    1
    37    19    20    1
    38    19    25    1
    39    19    21    1
    40    21    22    1
    41    21    44    1
    42    21    45    1
    43    22    23    1
    44    22    46    1
    45    22    47    1
    46    23    24    1
    47    23    48    1
    48    23    49    1
    49    24    25    1
    50    24    50    1
    51    24    51    1
    52    25    26    1
    53    25    27    1
    54    27    52    1
    55    27    53    1
    56    27    54    1
    57    28    55    1
    58    28    56    1
@<TRIPOS>SUBSTRUCTURE
     1 ZINC000195331548        1 TEMP              0 ****  ****    0 ROOT


##########                                Name:    ZINC001248546333
##########                DOCK_Rotatable_Bonds:                   6
##########                         Heavy_Atoms:                  27
##########                    Molecular_Weight:             378.397
##########                DOCK_Rotatable_Bonds:                   6
##########                       Formal_Charge:         3.94881e-07
##########                     HBond_Acceptors:                   8
##########                        HBond_Donors:                   1
##########                         Heavy_Atoms:                  27
##########                          Grid_Score:          -31.603735
##########                     Grid_vdw_energy:          -31.320883
##########                      Grid_es_energy:           -0.282853
##########           Internal_energy_repulsive:           16.081921

@<TRIPOS>MOLECULE
ZINC001248546333
 48 50 1 0 0
SMALL
USER_CHARGES


@<TRIPOS>ATOM
      1 C1          2.1627    1.5039   48.2013 C.3     1  ZINC001248546333   -0.1200
      2 C2          1.6951    1.9636   49.5582 C.ar    1  ZINC001248546333   -0.0800
      3 C3          2.6056    2.1079   50.5894 C.ar    1  ZINC001248546333   -0.1200
      4 C4          2.1844    2.5296   51.8382 C.ar    1  ZINC001248546333   -0.1100
      5 C5          0.8522    2.8092   52.0620 C.ar    1  ZINC001248546333   -0.1100
      6 C6         -0.0714    2.6661   51.0257 C.ar    1  ZINC001248546333   -0.0600
      7 C7         -1.5004    2.9640   51.2585 C.2     1  ZINC001248546333   -0.0600
      8 C8         -2.3861    2.1246   50.7792 C.2     1  ZINC001248546333   -0.1700
      9 C9         -3.8705    2.3129   50.9267 C.3     1  ZINC001248546333    0.1500
     10 N10        -4.1261    3.3955   51.8877 N.am    1  ZINC001248546333   -0.6300
     11 C11        -5.0820    3.2839   52.8312 C.2     1  ZINC001248546333    0.7200
     12 O12        -5.2729    4.1945   53.6140 O.2     1  ZINC001248546333   -0.5800
     13 N13        -5.8264    2.1628   52.9072 N.am    1  ZINC001248546333   -0.7500
     14 C14        -6.8655    2.0415   53.9327 C.3     1  ZINC001248546333    0.2000
     15 C15        -7.9508    1.1187   53.4415 C.2     1  ZINC001248546333    0.0700
     16 C16        -9.2675    1.2045   53.7417 C.2     1  ZINC001248546333   -0.2000
     17 C17        -9.9276    0.1613   53.0840 C.2     1  ZINC001248546333   -0.0200
     18 C18       -11.4069   -0.1214   53.1383 C.3     1  ZINC001248546333    0.5600
     19 F19       -12.1128    1.0864   53.1399 F       1  ZINC001248546333   -0.1700
     20 F20       -11.7784   -0.8773   52.0213 F       1  ZINC001248546333   -0.1700
     21 F21       -11.7027   -0.8359   54.3042 F       1  ZINC001248546333   -0.1600
     22 N22        -9.0394   -0.5259   52.4131 N.2     1  ZINC001248546333   -0.2200
     23 N23        -7.7846    0.0621   52.6186 N.pl3   1  ZINC001248546333   -0.3400
     24 C24        -6.5148   -0.3947   52.0482 C.3     1  ZINC001248546333    0.0900
     25 C25        -3.2959    4.6074   51.7778 C.3     1  ZINC001248546333    0.1300
     26 C26        -1.8396    4.2032   52.0323 C.3     1  ZINC001248546333   -0.1000
     27 C27         0.3606    2.2453   49.7676 C.ar    1  ZINC001248546333   -0.1100
     28 H28         2.4383    2.3698   47.5993 H       1  ZINC001248546333    0.0700
     29 H29         3.0281    0.8514   48.3170 H       1  ZINC001248546333    0.0700
     30 H30         1.3596    0.9579   47.7061 H       1  ZINC001248546333    0.0700
     31 H31         3.6496    1.8902   50.4193 H       1  ZINC001248546333    0.1200
     32 H32         2.9001    2.6396   52.6394 H       1  ZINC001248546333    0.1200
     33 H33         0.5247    3.1379   53.0373 H       1  ZINC001248546333    0.1200
     34 H34        -2.0310    1.2524   50.2505 H       1  ZINC001248546333    0.1200
     35 H35        -4.3023    2.5739   49.9606 H       1  ZINC001248546333    0.0800
     36 H36        -4.3204    1.3891   51.2904 H       1  ZINC001248546333    0.0800
     37 H37        -5.6742    1.4364   52.2827 H       1  ZINC001248546333    0.4000
     38 H38        -6.4292    1.6359   54.8456 H       1  ZINC001248546333    0.1000
     39 H39        -7.2896    3.0243   54.1384 H       1  ZINC001248546333    0.0900
     40 H40        -9.7271    1.9469   54.3771 H       1  ZINC001248546333    0.1700
     41 H41        -6.3496    0.0963   51.0892 H       1  ZINC001248546333    0.0900
     42 H42        -5.7005   -0.1461   52.7288 H       1  ZINC001248546333    0.1000
     43 H43        -6.5496   -1.4743   51.9024 H       1  ZINC001248546333    0.1000
     44 H44        -3.3950    5.0327   50.7792 H       1  ZINC001248546333    0.0700
     45 H45        -3.6099    5.3381   52.5232 H       1  ZINC001248546333    0.1000
     46 H46        -1.6971    4.0205   53.0974 H       1  ZINC001248546333    0.0800
     47 H47        -1.1807    5.0121   51.7168 H       1  ZINC001248546333    0.0900
     48 H48        -0.3493    2.1325   48.9614 H       1  ZINC001248546333    0.1200
@<TRIPOS>BOND
     1     1     2    1
     2     1    28    1
     3     1    29    1
     4     1    30    1
     5     2    27   ar
     6     2     3   ar
     7     3     4   ar
     8     3    31    1
     9     4     5   ar
    10     4    32    1
    11     5     6   ar
    12     5    33    1
    13     6     7    1
    14     6    27   ar
    15     7    26    1
    16     7     8    2
    17     8     9    1
    18     8    34    1
    19     9    10    1
    20     9    35    1
    21     9    36    1
    22    10    11   am
    23    10    25    1
    24    11    12    2
    25    11    13   am
    26    13    14    1
    27    13    37    1
    28    14    15    1
    29    14    38    1
    30    14    39    1
    31    15    23    1
    32    15    16    2
    33    16    17    1
    34    16    40    1
    35    17    18    1
    36    17    22    2
    37    18    19    1
    38    18    20    1
    39    18    21    1
    40    22    23    1
    41    23    24    1
    42    24    41    1
    43    24    42    1
    44    24    43    1
    45    25    26    1
    46    25    44    1
    47    25    45    1
    48    26    46    1
    49    26    47    1
    50    27    48    1
@<TRIPOS>SUBSTRUCTURE
     1 ZINC001248546333        1 TEMP              0 ****  ****    0 ROOT


##########                                Name:    ZINC001045438664
##########                DOCK_Rotatable_Bonds:                   6
##########                         Heavy_Atoms:                  26
##########                    Molecular_Weight:             352.439
##########                DOCK_Rotatable_Bonds:                   6
##########                       Formal_Charge:          -0.0099999
##########                     HBond_Acceptors:                   7
##########                        HBond_Donors:                   2
##########                         Heavy_Atoms:                  26
##########                          Grid_Score:          -31.598230
##########                     Grid_vdw_energy:          -30.687683
##########                      Grid_es_energy:           -0.910547
##########           Internal_energy_repulsive:            7.118931

@<TRIPOS>MOLECULE
ZINC001045438664
 50 53 1 0 0
SMALL
USER_CHARGES


@<TRIPOS>ATOM
      1 C1         -7.6485    4.4910   50.2984 C.3     1  ZINC001045438664   -0.1100
      2 C2         -6.5757    3.4748   50.5943 C.ar    1  ZINC001045438664    0.2100
      3 C3         -5.2449    3.8426   50.5907 C.ar    1  ZINC001045438664   -0.3000
      4 C4         -4.2865    2.8660   50.8711 C.ar    1  ZINC001045438664    0.4500
      5 N5         -2.9384    3.1850   50.8801 N.pl3   1  ZINC001045438664   -0.7100
      6 C6         -2.2305    3.3384   52.1535 C.3     1  ZINC001045438664    0.1500
      7 H7         -2.0066    2.3544   52.5656 H       1  ZINC001045438664    0.0900
      8 C8         -3.1100    4.1146   53.1358 C.3     1  ZINC001045438664   -0.1300
      9 C9         -2.3707    4.2747   54.4657 C.3     1  ZINC001045438664   -0.1200
     10 C10        -1.0660    5.0398   54.2349 C.3     1  ZINC001045438664   -0.1200
     11 C11        -0.1864    4.2637   53.2526 C.3     1  ZINC001045438664   -0.1300
     12 C12        -0.9258    4.1036   51.9227 C.3     1  ZINC001045438664    0.1400
     13 H13        -1.1496    5.0875   51.5107 H       1  ZINC001045438664    0.1000
     14 N14        -0.0837    3.3604   50.9822 N.am    1  ZINC001045438664   -0.7200
     15 C15         0.8209    4.0137   50.2263 C.2     1  ZINC001045438664    0.5700
     16 O16         0.9369    5.2197   50.3238 O.2     1  ZINC001045438664   -0.5200
     17 C17         1.6720    3.2635   49.2784 C.ar    1  ZINC001045438664   -0.2500
     18 C18         2.6157    3.9221   48.4822 C.ar    1  ZINC001045438664    0.1900
     19 N19         3.3559    3.2123   47.6488 N.ar    1  ZINC001045438664   -0.5200
     20 C20         3.2146    1.9041   47.5618 C.ar    1  ZINC001045438664    0.3200
     21 N21         2.3377    1.2439   48.2926 N.ar    1  ZINC001045438664   -0.5200
     22 C22         1.5606    1.8738   49.1562 C.ar    1  ZINC001045438664    0.2100
     23 N23        -4.6889    1.6254   51.1299 N.ar    1  ZINC001045438664   -0.5800
     24 C24        -5.9704    1.3188   51.1226 C.ar    1  ZINC001045438664    0.4000
     25 C25        -6.3863   -0.0986   51.4213 C.3     1  ZINC001045438664   -0.1100
     26 C26        -6.2564   -0.5831   52.8668 C.3     1  ZINC001045438664   -0.1500
     27 C27        -7.6393   -0.3020   52.2756 C.3     1  ZINC001045438664   -0.1500
     28 N28        -6.8988    2.2182   50.8667 N.ar    1  ZINC001045438664   -0.5600
     29 H29        -7.9639    4.9673   51.2267 H       1  ZINC001045438664    0.0800
     30 H30        -7.2557    5.2464   49.6178 H       1  ZINC001045438664    0.0800
     31 H31        -8.5020    3.9944   49.8367 H       1  ZINC001045438664    0.0800
     32 H32        -4.9523    4.8597   50.3760 H       1  ZINC001045438664    0.1400
     33 H33        -2.4633    3.3070   50.0432 H       1  ZINC001045438664    0.4100
     34 H34        -3.3339    5.0985   52.7238 H       1  ZINC001045438664    0.0700
     35 H35        -4.0395    3.5694   53.3002 H       1  ZINC001045438664    0.0700
     36 H36        -2.9972    4.8277   55.1655 H       1  ZINC001045438664    0.0700
     37 H37        -2.1467    3.2907   54.8776 H       1  ZINC001045438664    0.0700
     38 H38        -1.2898    6.0238   53.8228 H       1  ZINC001045438664    0.0700
     39 H39        -0.5391    5.1540   55.1823 H       1  ZINC001045438664    0.0700
     40 H40         0.7431    4.8089   53.0882 H       1  ZINC001045438664    0.0800
     41 H41         0.0374    3.2797   53.6646 H       1  ZINC001045438664    0.0700
     42 H42        -0.1771    2.3981   50.9035 H       1  ZINC001045438664    0.4000
     43 H43         2.7371    4.9934   48.5476 H       1  ZINC001045438664    0.1700
     44 H44         3.8365    1.3560   46.8696 H       1  ZINC001045438664    0.2100
     45 H45         0.8449    1.3261   49.7513 H       1  ZINC001045438664    0.1800
     46 H46        -6.1948   -0.8217   50.6286 H       1  ZINC001045438664    0.1300
     47 H47        -5.9792   -1.6253   53.0251 H       1  ZINC001045438664    0.1000
     48 H48        -5.8702    0.1232   53.6016 H       1  ZINC001045438664    0.1100
     49 H49        -8.1628    0.5893   52.6214 H       1  ZINC001045438664    0.1000
     50 H50        -8.2718   -1.1592   52.0450 H       1  ZINC001045438664    0.1000
@<TRIPOS>BOND
     1     1     2    1
     2     1    29    1
     3     1    30    1
     4     1    31    1
     5     2    28   ar
     6     2     3   ar
     7     3     4   ar
     8     3    32    1
     9     4     5    1
    10     4    23   ar
    11     5     6    1
    12     5    33    1
    13     6     7    1
    14     6    12    1
    15     6     8    1
    16     8     9    1
    17     8    34    1
    18     8    35    1
    19     9    10    1
    20     9    36    1
    21     9    37    1
    22    10    11    1
    23    10    38    1
    24    10    39    1
    25    11    12    1
    26    11    40    1
    27    11    41    1
    28    12    13    1
    29    12    14    1
    30    14    15   am
    31    14    42    1
    32    15    16    2
    33    15    17    1
    34    17    22   ar
    35    17    18   ar
    36    18    19   ar
    37    18    43    1
    38    19    20   ar
    39    20    21   ar
    40    20    44    1
    41    21    22   ar
    42    22    45    1
    43    23    24   ar
    44    24    25    1
    45    24    28   ar
    46    25    27    1
    47    25    26    1
    48    25    46    1
    49    26    27    1
    50    26    47    1
    51    26    48    1
    52    27    49    1
    53    27    50    1
@<TRIPOS>SUBSTRUCTURE
     1 ZINC001045438664        1 TEMP              0 ****  ****    0 ROOT


##########                                Name:    ZINC001058772245
##########                DOCK_Rotatable_Bonds:                  11
##########                         Heavy_Atoms:                  22
##########                    Molecular_Weight:             335.375
##########                DOCK_Rotatable_Bonds:                  11
##########                       Formal_Charge:          0.00999964
##########                     HBond_Acceptors:                   9
##########                        HBond_Donors:                   2
##########                         Heavy_Atoms:                  22
##########                          Grid_Score:          -31.585278
##########                     Grid_vdw_energy:          -29.533190
##########                      Grid_es_energy:           -2.052088
##########           Internal_energy_repulsive:           62.024105

@<TRIPOS>MOLECULE
ZINC001058772245
 41 41 1 0 0
SMALL
USER_CHARGES


@<TRIPOS>ATOM
      1 C1        -11.0782    1.8266   52.4461 C.3     1  ZINC001058772245   -0.1700
      2 C2        -10.7784    0.5612   53.2521 C.3     1  ZINC001058772245   -0.1400
      3 C3        -11.8185   -0.5115   52.9229 C.3     1  ZINC001058772245   -0.1500
      4 C4         -9.4043    0.0538   52.8979 C.2     1  ZINC001058772245    0.5300
      5 O5         -9.2826   -0.9297   52.1988 O.2     1  ZINC001058772245   -0.5200
      6 N6         -8.3106    0.6931   53.3580 N.am    1  ZINC001058772245   -0.5900
      7 C7         -8.4576    1.8812   54.2024 C.3     1  ZINC001058772245    0.0800
      8 C8         -7.1791    2.7187   54.1314 C.3     1  ZINC001058772245    0.0400
      9 O9         -7.3080    3.8581   54.9841 O.3     1  ZINC001058772245   -0.5700
     10 C10        -6.9748    0.1999   53.0136 C.3     1  ZINC001058772245    0.1100
     11 C11        -6.5203    0.8345   51.6977 C.3     1  ZINC001058772245    0.1000
     12 N12        -5.0881    1.1343   51.7690 N.am    1  ZINC001058772245   -0.7100
     13 C13        -4.4604    1.6805   50.7089 C.2     1  ZINC001058772245    0.6000
     14 O14        -5.0831    1.9259   49.6933 O.2     1  ZINC001058772245   -0.5300
     15 C15        -3.0202    1.9802   50.7800 C.2     1  ZINC001058772245    0.0000
     16 C16        -2.4394    2.5677   51.8504 C.2     1  ZINC001058772245   -0.2200
     17 S17        -0.7665    2.7408   51.5445 S.3     1  ZINC001058772245    0.2300
     18 C18        -0.9388    2.0195   50.0062 C.2     1  ZINC001058772245    0.0000
     19 N19        -2.1650    1.6922   49.7954 N.2     1  ZINC001058772245   -0.4400
     20 C20       -10.8335    0.8834   54.7467 C.3     1  ZINC001058772245    0.2900
     21 F21       -12.1583    0.8116   55.1906 F       1  ZINC001058772245   -0.1900
     22 F22       -10.0547   -0.0404   55.4520 F       1  ZINC001058772245   -0.2000
     23 H23       -11.9216    2.3517   52.8945 H       1  ZINC001058772245    0.0800
     24 H24       -10.2025    2.4757   52.4499 H       1  ZINC001058772245    0.0700
     25 H25       -11.3240    1.5541   51.4198 H       1  ZINC001058772245    0.0900
     26 H26       -11.6100   -0.9299   51.9383 H       1  ZINC001058772245    0.0800
     27 H27       -11.7735   -1.3029   53.6711 H       1  ZINC001058772245    0.0700
     28 H28       -12.8133   -0.0657   52.9249 H       1  ZINC001058772245    0.0900
     29 H29        -9.3010    2.4751   53.8501 H       1  ZINC001058772245    0.0900
     30 H30        -8.6345    1.5747   55.2333 H       1  ZINC001058772245    0.1200
     31 H31        -6.3313    2.1156   54.4565 H       1  ZINC001058772245    0.0600
     32 H32        -7.0177    3.0492   53.1054 H       1  ZINC001058772245    0.0700
     33 H33        -6.5157    4.4111   55.0241 H       1  ZINC001058772245    0.3800
     34 H34        -6.2743    0.4647   53.8056 H       1  ZINC001058772245    0.1000
     35 H35        -7.0051   -0.8840   52.9029 H       1  ZINC001058772245    0.0900
     36 H36        -6.7060    0.1416   50.8770 H       1  ZINC001058772245    0.0700
     37 H37        -7.0765    1.7564   51.5278 H       1  ZINC001058772245    0.0700
     38 H38        -4.5916    0.9397   52.5793 H       1  ZINC001058772245    0.4100
     39 H39        -2.9489    2.8768   52.7511 H       1  ZINC001058772245    0.1900
     40 H40        -0.1304    1.8574   49.3088 H       1  ZINC001058772245    0.2100
     41 H41       -10.4475    1.8885   54.9163 H       1  ZINC001058772245    0.1200
@<TRIPOS>BOND
     1     1     2    1
     2     1    23    1
     3     1    24    1
     4     1    25    1
     5     2     3    1
     6     2     4    1
     7     2    20    1
     8     3    26    1
     9     3    27    1
    10     3    28    1
    11     4     5    2
    12     4     6   am
    13     6     7    1
    14     6    10    1
    15     7     8    1
    16     7    29    1
    17     7    30    1
    18     8     9    1
    19     8    31    1
    20     8    32    1
    21     9    33    1
    22    10    11    1
    23    10    34    1
    24    10    35    1
    25    11    12    1
    26    11    36    1
    27    11    37    1
    28    12    13   am
    29    12    38    1
    30    13    14    2
    31    13    15    1
    32    15    19    1
    33    15    16    2
    34    16    17    1
    35    16    39    1
    36    17    18    1
    37    18    19    2
    38    18    40    1
    39    20    21    1
    40    20    22    1
    41    20    41    1
@<TRIPOS>SUBSTRUCTURE
     1 ZINC001058772245        1 TEMP              0 ****  ****    0 ROOT


##########                                Name:    ZINC000020646552
##########                DOCK_Rotatable_Bonds:                   5
##########                         Heavy_Atoms:                  29
##########                    Molecular_Weight:             412.556
##########                DOCK_Rotatable_Bonds:                   5
##########                       Formal_Charge:          -0.0200012
##########                     HBond_Acceptors:                   7
##########                        HBond_Donors:                   0
##########                         Heavy_Atoms:                  29
##########                          Grid_Score:          -31.583082
##########                     Grid_vdw_energy:          -30.355659
##########                      Grid_es_energy:           -1.227423
##########           Internal_energy_repulsive:           14.883341

@<TRIPOS>MOLECULE
ZINC000020646552
 57 60 1 0 0
SMALL
USER_CHARGES


@<TRIPOS>ATOM
      1 C1          0.9421    1.7394   61.0105 C.3     1  ZINC000020646552    0.0200
      2 N2          0.0985    2.5275   60.1019 N.3     1  ZINC000020646552   -0.5400
      3 C3          0.0579    1.9227   58.7639 C.3     1  ZINC000020646552    0.0400
      4 C4         -0.9685    2.6658   57.9020 C.3     1  ZINC000020646552    0.1200
      5 N5         -0.6476    4.1009   57.9264 N.am    1  ZINC000020646552   -0.6100
      6 C6         -0.5329    4.8037   56.7820 C.2     1  ZINC000020646552    0.5300
      7 O7         -0.2662    5.9861   56.8207 O.2     1  ZINC000020646552   -0.5200
      8 C8         -0.7360    4.1200   55.4545 C.3     1  ZINC000020646552   -0.1500
      9 S9         -2.5082    3.9639   55.1213 S.3     1  ZINC000020646552    0.0500
     10 C10        -2.4622    3.5472   53.4099 C.ar    1  ZINC000020646552    0.1500
     11 N11        -1.3032    3.3142   52.8034 N.ar    1  ZINC000020646552   -0.5200
     12 C12        -1.2681    3.0009   51.5157 C.ar    1  ZINC000020646552    0.3800
     13 C13         0.0420    2.7441   50.8694 C.ar    1  ZINC000020646552   -0.0500
     14 C14         1.2212    3.1427   51.4963 C.ar    1  ZINC000020646552   -0.0700
     15 C15         2.4375    2.9006   50.8906 C.ar    1  ZINC000020646552   -0.1300
     16 C16         2.4874    2.2637   49.6637 C.ar    1  ZINC000020646552   -0.1000
     17 C17         1.3202    1.8663   49.0366 C.ar    1  ZINC000020646552   -0.1300
     18 C18         0.0987    2.0980   49.6357 C.ar    1  ZINC000020646552   -0.0700
     19 N19        -2.3742    2.9111   50.7916 N.ar    1  ZINC000020646552   -0.5200
     20 C20        -3.5651    3.1320   51.3339 C.ar    1  ZINC000020646552    0.2100
     21 C21        -3.6464    3.4512   52.6700 C.ar    1  ZINC000020646552   -0.2100
     22 C22        -4.9662    3.7010   53.3460 C.3     1  ZINC000020646552    0.1100
     23 O23        -5.9852    3.9224   52.3703 O.3     1  ZINC000020646552   -0.3600
     24 C24        -6.0365    2.9026   51.3663 C.3     1  ZINC000020646552    0.1100
     25 C25        -6.0480    1.5255   52.0331 C.3     1  ZINC000020646552   -0.1800
     26 C26        -7.3012    3.0754   50.5227 C.3     1  ZINC000020646552   -0.1400
     27 C27        -4.7992    3.0262   50.4772 C.3     1  ZINC000020646552   -0.0900
     28 C28        -0.4554    4.7489   59.2328 C.3     1  ZINC000020646552    0.1100
     29 C29         0.5507    3.9239   60.0421 C.3     1  ZINC000020646552    0.0400
     30 H30         0.8939    2.1656   62.0124 H       1  ZINC000020646552    0.0700
     31 H31         0.5853    0.7098   61.0360 H       1  ZINC000020646552    0.0700
     32 H32         1.9730    1.7581   60.6569 H       1  ZINC000020646552    0.0300
     33 H33         1.0423    1.9961   58.3014 H       1  ZINC000020646552    0.0400
     34 H34        -0.2280    0.8742   58.8471 H       1  ZINC000020646552    0.0900
     35 H35        -0.9214    2.2974   56.8773 H       1  ZINC000020646552    0.1000
     36 H36        -1.9686    2.5073   58.3054 H       1  ZINC000020646552    0.0800
     37 H37        -0.2688    4.7104   54.6664 H       1  ZINC000020646552    0.1300
     38 H38        -0.2830    3.1290   55.4831 H       1  ZINC000020646552    0.1200
     39 H39         1.1834    3.6402   52.4541 H       1  ZINC000020646552    0.1400
     40 H40         3.3519    3.2093   51.3753 H       1  ZINC000020646552    0.1300
     41 H41         3.4414    2.0764   49.1933 H       1  ZINC000020646552    0.1300
     42 H42         1.3651    1.3698   48.0786 H       1  ZINC000020646552    0.1300
     43 H43        -0.8120    1.7874   49.1453 H       1  ZINC000020646552    0.1300
     44 H44        -5.2301    2.8356   53.9540 H       1  ZINC000020646552    0.0800
     45 H45        -4.8832    4.5785   53.9873 H       1  ZINC000020646552    0.1100
     46 H46        -6.9219    1.4419   52.6790 H       1  ZINC000020646552    0.0700
     47 H47        -6.0870    0.7511   51.2669 H       1  ZINC000020646552    0.0700
     48 H48        -5.1431    1.4025   52.6282 H       1  ZINC000020646552    0.0600
     49 H49        -7.2875    4.0545   50.0438 H       1  ZINC000020646552    0.0700
     50 H50        -7.3378    2.2981   49.7595 H       1  ZINC000020646552    0.0800
     51 H51        -8.1792    2.9967   51.1639 H       1  ZINC000020646552    0.0700
     52 H52        -4.8835    3.9213   49.8608 H       1  ZINC000020646552    0.1000
     53 H53        -4.7255    2.1493   49.8340 H       1  ZINC000020646552    0.1000
     54 H54        -0.0692    5.7578   59.0877 H       1  ZINC000020646552    0.0900
     55 H55        -1.4062    4.7908   59.7641 H       1  ZINC000020646552    0.0800
     56 H56         0.6222    4.3267   61.0524 H       1  ZINC000020646552    0.0900
     57 H57         1.5282    3.9694   59.5620 H       1  ZINC000020646552    0.0400
@<TRIPOS>BOND
     1     1     2    1
     2     1    30    1
     3     1    31    1
     4     1    32    1
     5     2    29    1
     6     2     3    1
     7     3     4    1
     8     3    33    1
     9     3    34    1
    10     4     5    1
    11     4    35    1
    12     4    36    1
    13     5     6   am
    14     5    28    1
    15     6     7    2
    16     6     8    1
    17     8     9    1
    18     8    37    1
    19     8    38    1
    20     9    10    1
    21    10    21   ar
    22    10    11   ar
    23    11    12   ar
    24    12    13    1
    25    12    19   ar
    26    13    18   ar
    27    13    14   ar
    28    14    15   ar
    29    14    39    1
    30    15    16   ar
    31    15    40    1
    32    16    17   ar
    33    16    41    1
    34    17    18   ar
    35    17    42    1
    36    18    43    1
    37    19    20   ar
    38    20    27    1
    39    20    21   ar
    40    21    22    1
    41    22    23    1
    42    22    44    1
    43    22    45    1
    44    23    24    1
    45    24    25    1
    46    24    26    1
    47    24    27    1
    48    25    46    1
    49    25    47    1
    50    25    48    1
    51    26    49    1
    52    26    50    1
    53    26    51    1
    54    27    52    1
    55    27    53    1
    56    28    29    1
    57    28    54    1
    58    28    55    1
    59    29    56    1
    60    29    57    1
@<TRIPOS>SUBSTRUCTURE
     1 ZINC000020646552        1 TEMP              0 ****  ****    0 ROOT


##########                                Name:    ZINC000788423111
##########                DOCK_Rotatable_Bonds:                   7
##########                         Heavy_Atoms:                  23
##########                    Molecular_Weight:             399.243
##########                DOCK_Rotatable_Bonds:                   7
##########                       Formal_Charge:         1.04308e-07
##########                     HBond_Acceptors:                   8
##########                        HBond_Donors:                   1
##########                         Heavy_Atoms:                  23
##########                          Grid_Score:          -31.557215
##########                     Grid_vdw_energy:          -30.615774
##########                      Grid_es_energy:           -0.941441
##########           Internal_energy_repulsive:            3.948957

@<TRIPOS>MOLECULE
ZINC000788423111
 35 37 1 0 0
SMALL
USER_CHARGES


@<TRIPOS>ATOM
      1 O1         -5.6428   -0.5225   51.4495 O.3     1  ZINC000788423111   -0.5400
      2 C2         -6.1577    0.8067   51.3474 C.3     1  ZINC000788423111    0.1000
      3 H3         -6.9129    0.8445   50.5623 H       1  ZINC000788423111    0.1300
      4 C4         -5.0189    1.7699   51.0063 C.3     1  ZINC000788423111    0.0300
      5 O5         -3.8013    1.2903   51.5807 O.3     1  ZINC000788423111   -0.2900
      6 C6         -2.7090    2.0910   51.4686 C.ar    1  ZINC000788423111    0.1700
      7 C7         -2.5842    3.2120   52.2754 C.ar    1  ZINC000788423111   -0.2400
      8 C8         -1.4711    4.0261   52.1594 C.ar    1  ZINC000788423111    0.1500
      9 F9         -1.3484    5.1184   52.9448 F       1  ZINC000788423111   -0.1300
     10 C10        -0.4828    3.7209   51.2389 C.ar    1  ZINC000788423111   -0.1600
     11 C11        -0.6069    2.6031   50.4334 C.ar    1  ZINC000788423111   -0.0300
     12 Br12        0.7446    2.1891   49.1772 Br      1  ZINC000788423111   -0.0200
     13 C13        -1.7146    1.7847   50.5506 C.ar    1  ZINC000788423111   -0.1300
     14 C14        -6.7875    1.2136   52.6810 C.3     1  ZINC000788423111    0.1000
     15 N15        -8.0890    0.5571   52.8268 N.pl3   1  ZINC000788423111   -0.1300
     16 N16        -8.3758   -0.6271   52.4117 N.2     1  ZINC000788423111   -0.0500
     17 N17        -9.6048   -0.8881   52.7038 N.2     1  ZINC000788423111   -0.2600
     18 C18       -10.1023    0.1890   53.3309 C.2     1  ZINC000788423111    0.2400
     19 C19       -11.4766    0.3515   53.8532 C.2     1  ZINC000788423111   -0.1300
     20 C20       -12.4454   -0.5831   53.7980 C.2     1  ZINC000788423111   -0.0800
     21 C21       -13.6492   -0.1996   54.3527 C.2     1  ZINC000788423111   -0.1400
     22 C22       -13.6709    1.0368   54.8586 C.2     1  ZINC000788423111   -0.2000
     23 S23       -12.0968    1.7923   54.6491 S.3     1  ZINC000788423111    0.1700
     24 N24        -9.1241    1.0728   53.3956 N.2     1  ZINC000788423111   -0.2900
     25 H25        -5.2331   -0.8491   50.6368 H       1  ZINC000788423111    0.3800
     26 H26        -4.9092    1.8341   49.9238 H       1  ZINC000788423111    0.0900
     27 H27        -5.2457    2.7575   51.4078 H       1  ZINC000788423111    0.0800
     28 H28        -3.3552    3.4498   52.9933 H       1  ZINC000788423111    0.1500
     29 H29         0.3857    4.3566   51.1493 H       1  ZINC000788423111    0.1500
     30 H30        -1.8105    0.9120   49.9217 H       1  ZINC000788423111    0.1500
     31 H31        -6.1340    0.9104   53.4990 H       1  ZINC000788423111    0.1300
     32 H32        -6.9214    2.2951   52.7047 H       1  ZINC000788423111    0.1300
     33 H33       -12.2921   -1.5556   53.3543 H       1  ZINC000788423111    0.1500
     34 H34       -14.5106   -0.8507   54.3758 H       1  ZINC000788423111    0.1500
     35 H35       -14.5250    1.5005   55.3295 H       1  ZINC000788423111    0.1700
@<TRIPOS>BOND
     1     1     2    1
     2     1    25    1
     3     2     3    1
     4     2     4    1
     5     2    14    1
     6     4     5    1
     7     4    26    1
     8     4    27    1
     9     5     6    1
    10     6    13   ar
    11     6     7   ar
    12     7     8   ar
    13     7    28    1
    14     8     9    1
    15     8    10   ar
    16    10    11   ar
    17    10    29    1
    18    11    12    1
    19    11    13   ar
    20    13    30    1
    21    14    15    1
    22    14    31    1
    23    14    32    1
    24    15    24    1
    25    15    16    1
    26    16    17    2
    27    17    18    1
    28    18    19    1
    29    18    24    2
    30    19    23    1
    31    19    20    2
    32    20    21    1
    33    20    33    1
    34    21    22    2
    35    21    34    1
    36    22    23    1
    37    22    35    1
@<TRIPOS>SUBSTRUCTURE
     1 ZINC000788423111        1 TEMP              0 ****  ****    0 ROOT


##########                                Name:    ZINC000057429281
##########                DOCK_Rotatable_Bonds:                  10
##########                         Heavy_Atoms:                  23
##########                    Molecular_Weight:             331.295
##########                DOCK_Rotatable_Bonds:                  10
##########                       Formal_Charge:          -0.0100002
##########                     HBond_Acceptors:                   9
##########                        HBond_Donors:                   5
##########                         Heavy_Atoms:                  23
##########                          Grid_Score:          -31.556885
##########                     Grid_vdw_energy:          -28.655653
##########                      Grid_es_energy:           -2.901231
##########           Internal_energy_repulsive:           13.049019

@<TRIPOS>MOLECULE
ZINC000057429281
 39 39 1 0 0
SMALL
USER_CHARGES


@<TRIPOS>ATOM
      1 C1         -3.4011    3.7239   51.1695 C.3     1  ZINC000057429281   -0.1500
      2 C2         -3.0595    2.3669   50.5508 C.3     1  ZINC000057429281   -0.0400
      3 H3         -3.5069    2.2967   49.5594 H       1  ZINC000057429281    0.0900
      4 C4         -3.6090    1.2487   51.4387 C.3     1  ZINC000057429281   -0.1300
      5 C5         -5.1154    1.2910   51.4253 C.2     1  ZINC000057429281    0.5200
      6 O6         -5.7086    1.4345   50.3773 O.2     1  ZINC000057429281   -0.5300
      7 N7         -5.8033    1.1693   52.5779 N.am    1  ZINC000057429281   -0.7000
      8 C8         -7.2676    1.2122   52.5651 C.3     1  ZINC000057429281    0.1100
      9 C9         -7.8100   -0.1883   52.4398 C.2     1  ZINC000057429281    0.5200
     10 N10        -9.1286   -0.4169   52.5995 N.am    1  ZINC000057429281   -0.8500
     11 O11        -7.0600   -1.1094   52.1954 O.2     1  ZINC000057429281   -0.5100
     12 C12        -7.7633    1.8301   53.8471 C.2     1  ZINC000057429281    0.5300
     13 N13        -6.8827    2.2746   54.7655 N.am    1  ZINC000057429281   -0.8400
     14 O14        -8.9546    1.9275   54.0523 O.2     1  ZINC000057429281   -0.5100
     15 C15        -1.5631    2.2290   50.4376 C.ar    1  ZINC000057429281   -0.0500
     16 C16        -0.9871    1.9290   49.2173 C.ar    1  ZINC000057429281   -0.1200
     17 C17         0.3855    1.8025   49.1133 C.ar    1  ZINC000057429281   -0.0700
     18 C18         1.1822    1.9766   50.2296 C.ar    1  ZINC000057429281   -0.1900
     19 C19         2.6786    1.8383   50.1163 C.3     1  ZINC000057429281    0.5100
     20 F20         3.2216    3.0317   49.6283 F       1  ZINC000057429281   -0.1800
     21 F21         3.2180    1.5617   51.3771 F       1  ZINC000057429281   -0.1800
     22 F22         2.9851    0.7931   49.2384 F       1  ZINC000057429281   -0.1800
     23 C23         0.6063    2.2780   51.4495 C.ar    1  ZINC000057429281   -0.0700
     24 C24        -0.7661    2.4082   51.5527 C.ar    1  ZINC000057429281   -0.1100
     25 H25        -3.0097    4.5206   50.5370 H       1  ZINC000057429281    0.0600
     26 H26        -4.4835    3.8237   51.2515 H       1  ZINC000057429281    0.0800
     27 H27        -2.9537    3.7942   52.1611 H       1  ZINC000057429281    0.0500
     28 H28        -3.2692    0.2845   51.0607 H       1  ZINC000057429281    0.1000
     29 H29        -3.2508    1.3857   52.4590 H       1  ZINC000057429281    0.1000
     30 H30        -5.3288    1.0533   53.4160 H       1  ZINC000057429281    0.4200
     31 H31        -7.6061    1.8100   51.7189 H       1  ZINC000057429281    0.1300
     32 H32        -9.4779   -1.3182   52.5189 H       1  ZINC000057429281    0.4000
     33 H33        -9.7283    0.3199   52.7952 H       1  ZINC000057429281    0.4100
     34 H34        -7.2018    2.6723   55.5907 H       1  ZINC000057429281    0.4000
     35 H35        -5.9299    2.1967   54.6013 H       1  ZINC000057429281    0.4100
     36 H36        -1.6095    1.7930   48.3451 H       1  ZINC000057429281    0.1400
     37 H37         0.8355    1.5674   48.1601 H       1  ZINC000057429281    0.1400
     38 H38         1.2287    2.4144   52.3216 H       1  ZINC000057429281    0.1400
     39 H39        -1.2160    2.6438   52.5058 H       1  ZINC000057429281    0.1400
@<TRIPOS>BOND
     1     1     2    1
     2     1    25    1
     3     1    26    1
     4     1    27    1
     5     2     3    1
     6     2     4    1
     7     2    15    1
     8     4     5    1
     9     4    28    1
    10     4    29    1
    11     5     6    2
    12     5     7   am
    13     7     8    1
    14     7    30    1
    15     8     9    1
    16     8    12    1
    17     8    31    1
    18     9    10   am
    19     9    11    2
    20    10    32    1
    21    10    33    1
    22    12    13   am
    23    12    14    2
    24    13    34    1
    25    13    35    1
    26    15    24   ar
    27    15    16   ar
    28    16    17   ar
    29    16    36    1
    30    17    18   ar
    31    17    37    1
    32    18    19    1
    33    18    23   ar
    34    19    20    1
    35    19    21    1
    36    19    22    1
    37    23    24   ar
    38    23    38    1
    39    24    39    1
@<TRIPOS>SUBSTRUCTURE
     1 ZINC000057429281        1 TEMP              0 ****  ****    0 ROOT


##########                                Name:    ZINC001015955459
##########                DOCK_Rotatable_Bonds:                   6
##########                         Heavy_Atoms:                  24
##########                    Molecular_Weight:             347.844
##########                DOCK_Rotatable_Bonds:                   6
##########                       Formal_Charge:          -0.0200002
##########                     HBond_Acceptors:                   6
##########                        HBond_Donors:                   1
##########                         Heavy_Atoms:                  24
##########                          Grid_Score:          -31.528000
##########                     Grid_vdw_energy:          -31.012472
##########                      Grid_es_energy:           -0.515527
##########           Internal_energy_repulsive:           15.140880

@<TRIPOS>MOLECULE
ZINC001015955459
 46 48 1 0 0
SMALL
USER_CHARGES


@<TRIPOS>ATOM
      1 C1        -12.2696    3.6553   51.3739 C.3     1  ZINC001015955459   -0.1500
      2 C2        -11.3503    2.7701   52.2180 C.3     1  ZINC001015955459   -0.0300
      3 C3        -11.1493    3.4092   53.5936 C.3     1  ZINC001015955459   -0.1500
      4 C4        -11.9762    1.4093   52.3830 C.2     1  ZINC001015955459    0.0600
      5 C5        -11.3391    0.2637   52.7491 C.2     1  ZINC001015955459   -0.0800
      6 C6         -9.9051    0.1197   53.0589 C.2     1  ZINC001015955459    0.6100
      7 O7         -9.5068   -0.8649   53.6513 O.2     1  ZINC001015955459   -0.5300
      8 N8         -9.0353    1.0793   52.6858 N.am    1  ZINC001015955459   -0.7100
      9 C9         -7.6100    0.9354   52.9922 C.3     1  ZINC001015955459    0.1400
     10 H10        -7.4631    0.8318   54.0673 H       1  ZINC001015955459    0.1000
     11 C11        -7.0231   -0.2838   52.2513 C.3     1  ZINC001015955459   -0.1300
     12 C12        -5.9272    0.2954   51.3311 C.3     1  ZINC001015955459    0.0200
     13 N13        -5.5362    1.5758   51.9748 N.3     1  ZINC001015955459   -0.4900
     14 C14        -4.8887    2.4741   51.0095 C.3     1  ZINC001015955459    0.0800
     15 C15        -3.4034    2.4978   51.2633 C.ar    1  ZINC001015955459   -0.1100
     16 C16        -2.9212    2.8426   52.5119 C.ar    1  ZINC001015955459   -0.1100
     17 C17        -1.5587    2.8597   52.7468 C.ar    1  ZINC001015955459   -0.1000
     18 C18        -0.6780    2.5425   51.7303 C.ar    1  ZINC001015955459   -0.1100
     19 C19        -1.1600    2.2024   50.4786 C.ar    1  ZINC001015955459   -0.0300
     20 Cl20       -0.0542    1.8043   49.2009 Cl      1  ZINC001015955459   -0.0700
     21 C21        -2.5233    2.1802   50.2457 C.ar    1  ZINC001015955459   -0.1000
     22 C22        -6.8213    2.1502   52.4577 C.3     1  ZINC001015955459    0.0100
     23 N23       -12.2738   -0.7249   52.7696 N.2     1  ZINC001015955459   -0.4600
     24 C24       -13.4226   -0.2124   52.4437 C.2     1  ZINC001015955459    0.1800
     25 O25       -13.2685    1.0962   52.1973 O.3     1  ZINC001015955459   -0.1900
     26 H26       -13.2338    3.7568   51.8719 H       1  ZINC001015955459    0.0600
     27 H27       -11.8168    4.6397   51.2546 H       1  ZINC001015955459    0.0700
     28 H28       -12.4127    3.2001   50.3940 H       1  ZINC001015955459    0.0600
     29 H29       -10.3860    2.6687   51.7201 H       1  ZINC001015955459    0.1300
     30 H30       -10.4944    2.7785   54.1949 H       1  ZINC001015955459    0.0600
     31 H31       -10.6965    4.3935   53.4743 H       1  ZINC001015955459    0.0700
     32 H32       -12.1135    3.5107   54.0915 H       1  ZINC001015955459    0.0600
     33 H33        -9.3532    1.8652   52.2143 H       1  ZINC001015955459    0.4100
     34 H34        -6.5883   -0.9857   52.9628 H       1  ZINC001015955459    0.0800
     35 H35        -7.7956   -0.7752   51.6597 H       1  ZINC001015955459    0.0700
     36 H36        -5.0744   -0.3819   51.2830 H       1  ZINC001015955459    0.0900
     37 H37        -6.3258    0.4776   50.3332 H       1  ZINC001015955459    0.0500
     38 H38        -5.0787    2.1175   49.9971 H       1  ZINC001015955459    0.0900
     39 H39        -5.2926    3.4804   51.1221 H       1  ZINC001015955459    0.0900
     40 H40        -3.6090    3.0949   53.3054 H       1  ZINC001015955459    0.1300
     41 H41        -1.1827    3.1252   53.7237 H       1  ZINC001015955459    0.1300
     42 H42         0.3864    2.5603   51.9127 H       1  ZINC001015955459    0.1300
     43 H43        -2.9002    1.9152   49.2687 H       1  ZINC001015955459    0.1300
     44 H44        -7.3604    2.6218   51.6360 H       1  ZINC001015955459    0.0700
     45 H45        -6.6418    2.8685   53.2576 H       1  ZINC001015955459    0.0900
     46 H46       -14.3534   -0.7559   52.3771 H       1  ZINC001015955459    0.2600
@<TRIPOS>BOND
     1     1     2    1
     2     1    26    1
     3     1    27    1
     4     1    28    1
     5     2     3    1
     6     2     4    1
     7     2    29    1
     8     3    30    1
     9     3    31    1
    10     3    32    1
    11     4    25    1
    12     4     5    2
    13     5     6    1
    14     5    23    1
    15     6     7    2
    16     6     8   am
    17     8     9    1
    18     8    33    1
    19     9    10    1
    20     9    22    1
    21     9    11    1
    22    11    12    1
    23    11    34    1
    24    11    35    1
    25    12    13    1
    26    12    36    1
    27    12    37    1
    28    13    14    1
    29    13    22    1
    30    14    15    1
    31    14    38    1
    32    14    39    1
    33    15    21   ar
    34    15    16   ar
    35    16    17   ar
    36    16    40    1
    37    17    18   ar
    38    17    41    1
    39    18    19   ar
    40    18    42    1
    41    19    20    1
    42    19    21   ar
    43    21    43    1
    44    22    44    1
    45    22    45    1
    46    23    24    2
    47    24    25    1
    48    24    46    1
@<TRIPOS>SUBSTRUCTURE
     1 ZINC001015955459        1 TEMP              0 ****  ****    0 ROOT


##########                                Name:    ZINC000854500114
##########                DOCK_Rotatable_Bonds:                   7
##########                         Heavy_Atoms:                  24
##########                    Molecular_Weight:             399.288
##########                DOCK_Rotatable_Bonds:                   7
##########                       Formal_Charge:          -0.0399992
##########                     HBond_Acceptors:                   7
##########                        HBond_Donors:                   2
##########                         Heavy_Atoms:                  24
##########                          Grid_Score:          -31.523415
##########                     Grid_vdw_energy:          -32.004387
##########                      Grid_es_energy:            0.480972
##########           Internal_energy_repulsive:           77.325897

@<TRIPOS>MOLECULE
ZINC000854500114
 47 49 1 0 0
SMALL
USER_CHARGES


@<TRIPOS>ATOM
      1 O1         -5.0483    0.3826   52.0154 O.2     1  ZINC000854500114   -0.5800
      2 C2         -5.6227    1.3792   51.6236 C.2     1  ZINC000854500114    0.6600
      3 N3         -6.8279    1.7058   52.1311 N.am    1  ZINC000854500114   -0.7100
      4 C4         -7.4480    0.8560   53.1507 C.3     1  ZINC000854500114    0.1600
      5 C5         -8.7472    1.5098   53.6646 C.3     1  ZINC000854500114   -0.1400
      6 C6         -9.8649    0.8482   52.8208 C.3     1  ZINC000854500114   -0.1300
      7 C7         -9.3789   -0.6174   52.6989 C.3     1  ZINC000854500114   -0.1300
      8 C8         -7.8496   -0.4965   52.5366 C.3     1  ZINC000854500114   -0.1300
      9 O9         -5.0528    2.1602   50.6866 O.3     1  ZINC000854500114   -0.3600
     10 C10        -3.6150    2.0466   50.5193 C.3     1  ZINC000854500114    0.1000
     11 C11        -2.9093    2.7585   51.6752 C.3     1  ZINC000854500114    0.1500
     12 H12        -3.1218    2.2383   52.6091 H       1  ZINC000854500114    0.0900
     13 C13        -3.4067    4.2045   51.7682 C.3     1  ZINC000854500114   -0.1300
     14 C14        -2.5992    4.9501   52.8331 C.3     1  ZINC000854500114   -0.1200
     15 C15        -1.1222    4.9722   52.4331 C.3     1  ZINC000854500114   -0.1400
     16 C16        -0.5988    3.5350   52.3477 C.3     1  ZINC000854500114    0.0900
     17 N17        -1.4597    2.7686   51.4359 N.am    1  ZINC000854500114   -0.6100
     18 C18        -0.9299    2.0923   50.3974 C.2     1  ZINC000854500114    0.5900
     19 O19        -1.6531    1.4617   49.6499 O.2     1  ZINC000854500114   -0.4900
     20 C20         0.5234    2.1169   50.1679 C.2     1  ZINC000854500114   -0.0300
     21 C21         1.4937    1.4750   50.9176 C.2     1  ZINC000854500114   -0.1200
     22 C22         2.7081    1.8001   50.3074 C.2     1  ZINC000854500114    0.0200
     23 Br23        4.4223    1.2260   50.8626 Br      1  ZINC000854500114    0.0400
     24 N24         2.4481    2.5723   49.2828 N.2     1  ZINC000854500114   -0.2400
     25 N25         1.1846    2.7730   49.1688 N.pl3   1  ZINC000854500114   -0.3700
     26 H26        -7.2847    2.5034   51.8212 H       1  ZINC000854500114    0.4000
     27 H27        -6.7553    0.6996   53.9777 H       1  ZINC000854500114    0.0900
     28 H28        -8.8900    1.2938   54.7235 H       1  ZINC000854500114    0.0800
     29 H29        -8.7264    2.5861   53.4934 H       1  ZINC000854500114    0.0700
     30 H30       -10.8215    0.8959   53.3414 H       1  ZINC000854500114    0.0700
     31 H31        -9.9349    1.3151   51.8384 H       1  ZINC000854500114    0.0700
     32 H32        -9.6237   -1.1769   53.6016 H       1  ZINC000854500114    0.0700
     33 H33        -9.8190   -1.0935   51.8226 H       1  ZINC000854500114    0.0700
     34 H34        -7.5831   -0.5207   51.4799 H       1  ZINC000854500114    0.0700
     35 H35        -7.3525   -1.3093   53.0661 H       1  ZINC000854500114    0.0800
     36 H36        -3.3318    0.9941   50.5137 H       1  ZINC000854500114    0.1000
     37 H37        -3.3215    2.5069   49.5759 H       1  ZINC000854500114    0.0700
     38 H38        -3.2783    4.6961   50.8039 H       1  ZINC000854500114    0.0800
     39 H39        -4.4618    4.2093   52.0419 H       1  ZINC000854500114    0.0900
     40 H40        -2.9676    5.9723   52.9186 H       1  ZINC000854500114    0.0800
     41 H41        -2.7081    4.4437   53.7922 H       1  ZINC000854500114    0.0700
     42 H42        -1.0153    5.4565   51.4626 H       1  ZINC000854500114    0.0700
     43 H43        -0.5511    5.5235   53.1802 H       1  ZINC000854500114    0.0800
     44 H44         0.4229    3.5401   51.9680 H       1  ZINC000854500114    0.0800
     45 H45        -0.6207    3.0788   53.3374 H       1  ZINC000854500114    0.0800
     46 H46         1.3440    0.8548   51.7890 H       1  ZINC000854500114    0.1700
     47 H47         0.7644    3.3134   48.4816 H       1  ZINC000854500114    0.4500
@<TRIPOS>BOND
     1     1     2    2
     2     2     3   am
     3     2     9    1
     4     3     4    1
     5     3    26    1
     6     4     8    1
     7     4     5    1
     8     4    27    1
     9     5     6    1
    10     5    28    1
    11     5    29    1
    12     6     7    1
    13     6    30    1
    14     6    31    1
    15     7     8    1
    16     7    32    1
    17     7    33    1
    18     8    34    1
    19     8    35    1
    20     9    10    1
    21    10    11    1
    22    10    36    1
    23    10    37    1
    24    11    12    1
    25    11    17    1
    26    11    13    1
    27    13    14    1
    28    13    38    1
    29    13    39    1
    30    14    15    1
    31    14    40    1
    32    14    41    1
    33    15    16    1
    34    15    42    1
    35    15    43    1
    36    16    17    1
    37    16    44    1
    38    16    45    1
    39    17    18   am
    40    18    19    2
    41    18    20    1
    42    20    25    1
    43    20    21    2
    44    21    22    1
    45    21    46    1
    46    22    23    1
    47    22    24    2
    48    24    25    1
    49    25    47    1
@<TRIPOS>SUBSTRUCTURE
     1 ZINC000854500114        1 TEMP              0 ****  ****    0 ROOT


##########                                Name:    ZINC000496437542
##########                DOCK_Rotatable_Bonds:                   7
##########                         Heavy_Atoms:                  24
##########                    Molecular_Weight:             338.447
##########                DOCK_Rotatable_Bonds:                   7
##########                       Formal_Charge:           0.0400002
##########                     HBond_Acceptors:                   6
##########                        HBond_Donors:                   1
##########                         Heavy_Atoms:                  24
##########                          Grid_Score:          -31.514992
##########                     Grid_vdw_energy:          -30.242495
##########                      Grid_es_energy:           -1.272497
##########           Internal_energy_repulsive:           16.100090

@<TRIPOS>MOLECULE
ZINC000496437542
 54 55 1 0 0
SMALL
USER_CHARGES


@<TRIPOS>ATOM
      1 C1        -12.3158   -1.6869   57.2721 C.3     1  ZINC000496437542   -0.1800
      2 C2        -12.0430   -0.3722   56.5386 C.3     1  ZINC000496437542    0.1400
      3 C3        -13.1083    0.6566   56.9226 C.3     1  ZINC000496437542   -0.1800
      4 C4        -10.6610    0.1536   56.9315 C.3     1  ZINC000496437542   -0.1400
      5 O5        -12.0846   -0.6001   55.1052 O.3     1  ZINC000496437542   -0.3600
      6 C6        -10.9637   -1.0732   54.5287 C.2     1  ZINC000496437542    0.6600
      7 O7        -10.4675   -2.1092   54.9249 O.2     1  ZINC000496437542   -0.5600
      8 N8        -10.3920   -0.3978   53.5122 N.am    1  ZINC000496437542   -0.6000
      9 C9        -10.9745    0.8588   53.0152 C.3     1  ZINC000496437542    0.0800
     10 C10        -9.8668    1.9171   52.9610 C.3     1  ZINC000496437542    0.0500
     11 O11        -8.7557    1.3982   52.2262 O.3     1  ZINC000496437542   -0.3700
     12 C12        -8.1468    0.2489   52.8198 C.3     1  ZINC000496437542    0.0700
     13 H13        -7.8235    0.4903   53.8324 H       1  ZINC000496437542    0.0700
     14 C14        -6.9374   -0.1772   51.9852 C.3     1  ZINC000496437542    0.1300
     15 N15        -5.8384    0.7672   52.2004 N.am    1  ZINC000496437542   -0.7200
     16 C16        -5.4860    1.6253   51.2226 C.2     1  ZINC000496437542    0.5600
     17 O17        -6.0813    1.6166   50.1622 O.2     1  ZINC000496437542   -0.5400
     18 C18        -4.3812    2.5725   51.4380 C.2     1  ZINC000496437542   -0.1900
     19 C19        -4.3641    3.3241   52.5175 C.2     1  ZINC000496437542   -0.0600
     20 C20        -3.2320    4.3026   52.7490 C.3     1  ZINC000496437542   -0.1000
     21 C21        -1.9684    3.5126   53.0970 C.3     1  ZINC000496437542   -0.1100
     22 C22        -1.2403    3.0782   51.8382 C.3     1  ZINC000496437542   -0.1200
     23 C23        -2.0011    2.0587   51.0102 C.3     1  ZINC000496437542   -0.1200
     24 C24        -3.2657    2.6734   50.4193 C.3     1  ZINC000496437542   -0.0800
     25 C25        -9.1633   -0.8918   52.8705 C.3     1  ZINC000496437542    0.1000
     26 H26       -13.3004   -2.0616   56.9923 H       1  ZINC000496437542    0.0900
     27 H27       -11.5569   -2.4198   56.9986 H       1  ZINC000496437542    0.0600
     28 H28       -12.2846   -1.5159   58.3482 H       1  ZINC000496437542    0.0700
     29 H29       -13.0770    0.8277   57.9986 H       1  ZINC000496437542    0.0700
     30 H30       -12.9139    1.5933   56.4001 H       1  ZINC000496437542    0.0600
     31 H31       -14.0929    0.2820   56.6427 H       1  ZINC000496437542    0.0900
     32 H32        -9.9020   -0.5793   56.6579 H       1  ZINC000496437542    0.0700
     33 H33       -10.4666    1.0902   56.4089 H       1  ZINC000496437542    0.0700
     34 H34       -10.6298    0.3247   58.0076 H       1  ZINC000496437542    0.0800
     35 H35       -11.3838    0.7041   52.0168 H       1  ZINC000496437542    0.0800
     36 H36       -11.7649    1.1889   53.6893 H       1  ZINC000496437542    0.1000
     37 H37       -10.2432    2.8131   52.4673 H       1  ZINC000496437542    0.1100
     38 H38        -9.5498    2.1646   53.9740 H       1  ZINC000496437542    0.0600
     39 H39        -6.6221   -1.1763   52.2861 H       1  ZINC000496437542    0.0900
     40 H40        -7.2088   -0.1844   50.9295 H       1  ZINC000496437542    0.0800
     41 H41        -5.3643    0.7751   53.0466 H       1  ZINC000496437542    0.4000
     42 H42        -5.1612    3.2431   53.2418 H       1  ZINC000496437542    0.1300
     43 H43        -3.0616    4.8857   51.8440 H       1  ZINC000496437542    0.0800
     44 H44        -3.4864    4.9682   53.5738 H       1  ZINC000496437542    0.0800
     45 H45        -1.3072    4.1393   53.6955 H       1  ZINC000496437542    0.0700
     46 H46        -2.2446    2.6302   53.6742 H       1  ZINC000496437542    0.0700
     47 H47        -1.0552    3.9582   51.2221 H       1  ZINC000496437542    0.0600
     48 H48        -0.2799    2.6483   52.1225 H       1  ZINC000496437542    0.0600
     49 H49        -1.3620    1.7047   50.2012 H       1  ZINC000496437542    0.0700
     50 H50        -2.2765    1.2157   51.6438 H       1  ZINC000496437542    0.0600
     51 H51        -3.5469    2.1337   49.5149 H       1  ZINC000496437542    0.0700
     52 H52        -3.0866    3.7222   50.1821 H       1  ZINC000496437542    0.0800
     53 H53        -8.7548   -1.7221   53.4467 H       1  ZINC000496437542    0.1100
     54 H54        -9.3926   -1.2245   51.8582 H       1  ZINC000496437542    0.0900
@<TRIPOS>BOND
     1     1     2    1
     2     1    26    1
     3     1    27    1
     4     1    28    1
     5     2     3    1
     6     2     4    1
     7     2     5    1
     8     3    29    1
     9     3    30    1
    10     3    31    1
    11     4    32    1
    12     4    33    1
    13     4    34    1
    14     5     6    1
    15     6     7    2
    16     6     8   am
    17     8    25    1
    18     8     9    1
    19     9    10    1
    20     9    35    1
    21     9    36    1
    22    10    11    1
    23    10    37    1
    24    10    38    1
    25    11    12    1
    26    12    13    1
    27    12    14    1
    28    12    25    1
    29    14    15    1
    30    14    39    1
    31    14    40    1
    32    15    16   am
    33    15    41    1
    34    16    17    2
    35    16    18    1
    36    18    24    1
    37    18    19    2
    38    19    20    1
    39    19    42    1
    40    20    21    1
    41    20    43    1
    42    20    44    1
    43    21    22    1
    44    21    45    1
    45    21    46    1
    46    22    23    1
    47    22    47    1
    48    22    48    1
    49    23    24    1
    50    23    49    1
    51    23    50    1
    52    24    51    1
    53    24    52    1
    54    25    53    1
    55    25    54    1
@<TRIPOS>SUBSTRUCTURE
     1 ZINC000496437542        1 TEMP              0 ****  ****    0 ROOT


##########                                Name:    ZINC000051488227
##########                DOCK_Rotatable_Bonds:                   8
##########                         Heavy_Atoms:                  30
##########                    Molecular_Weight:             403.478
##########                DOCK_Rotatable_Bonds:                   8
##########                       Formal_Charge:           0.0199996
##########                     HBond_Acceptors:                   5
##########                        HBond_Donors:                   0
##########                         Heavy_Atoms:                  30
##########                          Grid_Score:          -31.510805
##########                     Grid_vdw_energy:          -31.415257
##########                      Grid_es_energy:           -0.095550
##########           Internal_energy_repulsive:           30.397955

@<TRIPOS>MOLECULE
ZINC000051488227
 55 58 1 0 0
SMALL
USER_CHARGES


@<TRIPOS>ATOM
      1 O1         -5.2594    2.5800   49.6388 O.2     1  ZINC000051488227   -0.5000
      2 C2         -5.0385    2.6246   50.8259 C.2     1  ZINC000051488227    0.4800
      3 O3         -3.7911    2.4348   51.2841 O.3     1  ZINC000051488227   -0.3400
      4 C4         -2.9219    1.5807   50.4946 C.3     1  ZINC000051488227    0.1100
      5 C5         -1.4936    2.0351   50.6518 C.ar    1  ZINC000051488227   -0.1400
      6 C6         -0.5932    1.8513   49.6188 C.ar    1  ZINC000051488227   -0.0500
      7 C7          0.7166    2.2668   49.7605 C.ar    1  ZINC000051488227   -0.1500
      8 C8          1.1281    2.8696   50.9404 C.ar    1  ZINC000051488227    0.1500
      9 O9          2.4160    3.2798   51.0820 O.3     1  ZINC000051488227   -0.3100
     10 C10         3.2261    3.2919   49.9049 C.3     1  ZINC000051488227    0.1100
     11 C11         2.6638    4.2827   48.9183 C.ar    1  ZINC000051488227    0.1200
     12 C12         2.8253    4.0640   47.5636 C.ar    1  ZINC000051488227   -0.1500
     13 C13         2.3037    4.9816   46.6641 C.ar    1  ZINC000051488227   -0.0700
     14 C14         1.6364    6.0892   47.1638 C.ar    1  ZINC000051488227   -0.1700
     15 C15         1.5141    6.2412   48.5323 C.ar    1  ZINC000051488227    0.1100
     16 N16         2.0186    5.3455   49.3580 N.ar    1  ZINC000051488227   -0.4800
     17 C17         0.2225    3.0533   51.9752 C.ar    1  ZINC000051488227   -0.2100
     18 C18        -1.0873    2.6403   51.8267 C.ar    1  ZINC000051488227   -0.0500
     19 C19        -6.1622    2.8997   51.7916 C.3     1  ZINC000051488227    0.0000
     20 C20        -6.8958    1.6175   52.0899 C.ar    1  ZINC000051488227   -0.0900
     21 C21        -8.0024    1.6310   52.9182 C.ar    1  ZINC000051488227   -0.1100
     22 C22        -8.6753    0.4549   53.1917 C.ar    1  ZINC000051488227   -0.1200
     23 C23        -8.2420   -0.7346   52.6366 C.ar    1  ZINC000051488227   -0.1100
     24 C24        -7.1359   -0.7479   51.8076 C.ar    1  ZINC000051488227   -0.1200
     25 C25        -6.4655    0.4288   51.5305 C.ar    1  ZINC000051488227   -0.1000
     26 C26        -5.5919    3.4797   53.0896 C.3     1  ZINC000051488227   -0.1400
     27 C27        -4.9165    4.8199   52.7872 C.3     1  ZINC000051488227    0.0600
     28 O28        -5.8646    5.7050   52.1873 O.3     1  ZINC000051488227   -0.3800
     29 C29        -6.3964    5.2364   50.9464 C.3     1  ZINC000051488227    0.0500
     30 C30        -7.1313    3.9130   51.1750 C.3     1  ZINC000051488227   -0.1400
     31 H31        -3.0153    0.5504   50.8380 H       1  ZINC000051488227    0.0800
     32 H32        -3.2089    1.6413   49.4448 H       1  ZINC000051488227    0.0800
     33 H33        -0.9141    1.3819   48.7005 H       1  ZINC000051488227    0.1300
     34 H34         1.4197    2.1224   48.9535 H       1  ZINC000051488227    0.1400
     35 H35         4.2444    3.5786   50.1675 H       1  ZINC000051488227    0.0900
     36 H36         3.2323    2.2977   49.4579 H       1  ZINC000051488227    0.0900
     37 H37         3.3514    3.1898   47.2096 H       1  ZINC000051488227    0.1400
     38 H38         2.4148    4.8369   45.5997 H       1  ZINC000051488227    0.1400
     39 H39         1.2178    6.8244   46.4925 H       1  ZINC000051488227    0.1400
     40 H40         0.9960    7.1015   48.9296 H       1  ZINC000051488227    0.1600
     41 H41         0.5406    3.5219   52.8948 H       1  ZINC000051488227    0.1300
     42 H42        -1.7928    2.7834   52.6319 H       1  ZINC000051488227    0.1300
     43 H43        -8.3410    2.5604   53.3519 H       1  ZINC000051488227    0.1300
     44 H44        -9.5394    0.4653   53.8395 H       1  ZINC000051488227    0.1300
     45 H45        -8.7673   -1.6536   52.8509 H       1  ZINC000051488227    0.1200
     46 H46        -6.7971   -1.6773   51.3741 H       1  ZINC000051488227    0.1200
     47 H47        -5.6014    0.4184   50.8828 H       1  ZINC000051488227    0.1300
     48 H48        -6.3991    3.6322   53.8061 H       1  ZINC000051488227    0.0900
     49 H49        -4.8594    2.7885   53.5066 H       1  ZINC000051488227    0.0900
     50 H50        -4.5462    5.2577   53.7140 H       1  ZINC000051488227    0.1000
     51 H51        -4.0837    4.6607   52.1020 H       1  ZINC000051488227    0.0500
     52 H52        -7.0922    5.9744   50.5474 H       1  ZINC000051488227    0.1000
     53 H53        -5.5831    5.0828   50.2373 H       1  ZINC000051488227    0.0700
     54 H54        -7.4997    3.5317   50.2227 H       1  ZINC000051488227    0.0900
     55 H55        -7.9696    4.0742   51.8528 H       1  ZINC000051488227    0.0900
@<TRIPOS>BOND
     1     1     2    2
     2     2     3    1
     3     2    19    1
     4     3     4    1
     5     4     5    1
     6     4    31    1
     7     4    32    1
     8     5    18   ar
     9     5     6   ar
    10     6     7   ar
    11     6    33    1
    12     7     8   ar
    13     7    34    1
    14     8     9    1
    15     8    17   ar
    16     9    10    1
    17    10    11    1
    18    10    35    1
    19    10    36    1
    20    11    16   ar
    21    11    12   ar
    22    12    13   ar
    23    12    37    1
    24    13    14   ar
    25    13    38    1
    26    14    15   ar
    27    14    39    1
    28    15    16   ar
    29    15    40    1
    30    17    18   ar
    31    17    41    1
    32    18    42    1
    33    19    30    1
    34    19    20    1
    35    19    26    1
    36    20    25   ar
    37    20    21   ar
    38    21    22   ar
    39    21    43    1
    40    22    23   ar
    41    22    44    1
    42    23    24   ar
    43    23    45    1
    44    24    25   ar
    45    24    46    1
    46    25    47    1
    47    26    27    1
    48    26    48    1
    49    26    49    1
    50    27    28    1
    51    27    50    1
    52    27    51    1
    53    28    29    1
    54    29    30    1
    55    29    52    1
    56    29    53    1
    57    30    54    1
    58    30    55    1
@<TRIPOS>SUBSTRUCTURE
     1 ZINC000051488227        1 TEMP              0 ****  ****    0 ROOT


##########                                Name:    ZINC001326371752
##########                DOCK_Rotatable_Bonds:                   5
##########                         Heavy_Atoms:                  25
##########                    Molecular_Weight:             360.397
##########                DOCK_Rotatable_Bonds:                   5
##########                       Formal_Charge:           0.0199999
##########                     HBond_Acceptors:                  10
##########                        HBond_Donors:                   0
##########                         Heavy_Atoms:                  25
##########                          Grid_Score:          -31.499268
##########                     Grid_vdw_energy:          -31.364868
##########                      Grid_es_energy:           -0.134399
##########           Internal_energy_repulsive:            8.072893

@<TRIPOS>MOLECULE
ZINC001326371752
 41 44 1 0 0
SMALL
USER_CHARGES


@<TRIPOS>ATOM
      1 C1        -13.3314    0.3757   48.8583 C.3     1  ZINC001326371752    0.0300
      2 O2        -12.9311   -0.1887   50.1086 O.3     1  ZINC001326371752   -0.3800
      3 C3        -12.9865    0.7271   51.2041 C.3     1  ZINC001326371752    0.0500
      4 C4        -12.5899    0.0048   52.4932 C.3     1  ZINC001326371752    0.1200
      5 N5        -11.1304   -0.0968   52.5669 N.pl3   1  ZINC001326371752   -0.2800
      6 N6        -10.4334   -1.1651   52.3684 N.2     1  ZINC001326371752   -0.0800
      7 N7         -9.1764   -0.9118   52.5123 N.2     1  ZINC001326371752   -0.2500
      8 C8         -9.0358    0.3729   52.8181 C.2     1  ZINC001326371752   -0.0400
      9 C9        -10.2814    0.9080   52.8475 C.2     1  ZINC001326371752    0.0000
     10 C10       -10.5871    2.3510   53.1463 C.3     1  ZINC001326371752   -0.0600
     11 C11        -9.3679    2.9820   53.8318 C.3     1  ZINC001326371752    0.1200
     12 N12        -8.1485    2.5836   53.1133 N.am    1  ZINC001326371752   -0.6100
     13 C13        -7.3869    3.5013   52.4854 C.2     1  ZINC001326371752    0.6100
     14 O14        -7.7058    4.6756   52.5089 O.2     1  ZINC001326371752   -0.5100
     15 C15        -6.1733    3.0847   51.7734 C.2     1  ZINC001326371752   -0.3400
     16 C16        -6.2191    2.7701   50.4103 C.2     1  ZINC001326371752    0.2400
     17 N17        -5.1084    2.3992   49.8023 N.2     1  ZINC001326371752   -0.5100
     18 C18        -3.9512    2.3160   50.4454 C.2     1  ZINC001326371752    0.2900
     19 S19        -2.3870    1.8638   49.8837 S.3     1  ZINC001326371752    0.2500
     20 C20        -1.5973    2.0758   51.4542 C.2     1  ZINC001326371752   -0.2100
     21 C21        -2.5540    2.4668   52.2790 C.2     1  ZINC001326371752    0.0500
     22 N22        -3.8217    2.6037   51.7671 N.am    1  ZINC001326371752   -0.4600
     23 C23        -4.9365    2.9993   52.4494 C.2     1  ZINC001326371752    0.5500
     24 O24        -4.8654    3.2725   53.6350 O.2     1  ZINC001326371752   -0.5000
     25 C25        -7.7776    1.1572   53.0915 C.3     1  ZINC001326371752    0.2000
     26 H26       -13.2615   -0.3824   48.0784 H       1  ZINC001326371752    0.0900
     27 H27       -14.3604    0.7279   48.9315 H       1  ZINC001326371752    0.0500
     28 H28       -12.6779    1.2123   48.6115 H       1  ZINC001326371752    0.0500
     29 H29       -12.2974    1.5521   51.0232 H       1  ZINC001326371752    0.0600
     30 H30       -14.0003    1.1153   51.3023 H       1  ZINC001326371752    0.0600
     31 H31       -12.9589    0.5654   53.3521 H       1  ZINC001326371752    0.1200
     32 H32       -13.0244   -0.9949   52.4979 H       1  ZINC001326371752    0.1200
     33 H33       -10.7983    2.8799   52.2169 H       1  ZINC001326371752    0.0900
     34 H34       -11.4509    2.4120   53.8083 H       1  ZINC001326371752    0.1000
     35 H35        -9.4621    4.0678   53.8149 H       1  ZINC001326371752    0.1100
     36 H36        -9.3114    2.6366   54.8641 H       1  ZINC001326371752    0.0800
     37 H37        -7.1493    2.8298   49.8647 H       1  ZINC001326371752    0.1900
     38 H38        -0.5549    1.9185   51.6890 H       1  ZINC001326371752    0.2200
     39 H39        -2.3462    2.6715   53.3188 H       1  ZINC001326371752    0.2000
     40 H40        -7.3672    0.8656   54.0583 H       1  ZINC001326371752    0.1000
     41 H41        -7.0440    0.9763   52.3059 H       1  ZINC001326371752    0.1000
@<TRIPOS>BOND
     1     1     2    1
     2     1    26    1
     3     1    27    1
     4     1    28    1
     5     2     3    1
     6     3     4    1
     7     3    29    1
     8     3    30    1
     9     4     5    1
    10     4    31    1
    11     4    32    1
    12     5     9    1
    13     5     6    1
    14     6     7    2
    15     7     8    1
    16     8    25    1
    17     8     9    2
    18     9    10    1
    19    10    11    1
    20    10    33    1
    21    10    34    1
    22    11    12    1
    23    11    35    1
    24    11    36    1
    25    12    13   am
    26    12    25    1
    27    13    14    2
    28    13    15    1
    29    15    23    1
    30    15    16    2
    31    16    17    1
    32    16    37    1
    33    17    18    2
    34    18    22    1
    35    18    19    1
    36    19    20    1
    37    20    21    2
    38    20    38    1
    39    21    22    1
    40    21    39    1
    41    22    23   am
    42    23    24    2
    43    25    40    1
    44    25    41    1
@<TRIPOS>SUBSTRUCTURE
     1 ZINC001326371752        1 TEMP              0 ****  ****    0 ROOT


##########                                Name:    ZINC000541252362
##########                DOCK_Rotatable_Bonds:                   5
##########                         Heavy_Atoms:                  27
##########                    Molecular_Weight:             401.254
##########                DOCK_Rotatable_Bonds:                   5
##########                       Formal_Charge:          -0.0199999
##########                     HBond_Acceptors:                   9
##########                        HBond_Donors:                   1
##########                         Heavy_Atoms:                  27
##########                          Grid_Score:          -31.497540
##########                     Grid_vdw_energy:          -31.073378
##########                      Grid_es_energy:           -0.424162
##########           Internal_energy_repulsive:            4.799833

@<TRIPOS>MOLECULE
ZINC000541252362
 41 44 1 0 0
SMALL
USER_CHARGES


@<TRIPOS>ATOM
      1 C1         -7.6592    0.5026   63.1039 C.3     1  ZINC000541252362    0.1000
      2 N2         -8.1875    0.2303   61.7647 N.pl3   1  ZINC000541252362   -0.3800
      3 C3         -7.5558    0.4315   60.5942 C.2     1  ZINC000541252362    0.2600
      4 N4         -8.3561    0.0659   59.6281 N.2     1  ZINC000541252362   -0.5300
      5 C5         -9.5125   -0.3762   60.1401 C.2     1  ZINC000541252362    0.2700
      6 C6        -10.6694   -0.8777   59.3574 C.ar    1  ZINC000541252362    0.0000
      7 C7        -11.8389   -1.2643   60.0091 C.ar    1  ZINC000541252362   -0.1000
      8 C8        -12.9146   -1.7304   59.2796 C.ar    1  ZINC000541252362   -0.1000
      9 C9        -12.8360   -1.8155   57.9027 C.ar    1  ZINC000541252362   -0.1300
     10 C10       -11.6737   -1.4320   57.2445 C.ar    1  ZINC000541252362    0.1400
     11 N11       -11.5977   -1.5196   55.8498 N.am    1  ZINC000541252362   -0.6800
     12 C12       -11.3325   -0.4188   55.1189 C.2     1  ZINC000541252362    0.5100
     13 O13       -11.1600    0.6479   55.6698 O.2     1  ZINC000541252362   -0.4900
     14 C14       -11.2507   -0.5132   53.6171 C.3     1  ZINC000541252362   -0.0600
     15 C15        -9.9916    0.1631   53.1392 C.2     1  ZINC000541252362    0.0700
     16 C16        -8.7748   -0.4161   53.0393 C.2     1  ZINC000541252362   -0.0700
     17 N17        -7.9118    0.5353   52.5684 N.pl3   1  ZINC000541252362   -0.3500
     18 C18        -6.5769    0.5100   52.2801 C.2     1  ZINC000541252362    0.0700
     19 C19        -5.9521    1.6143   51.8181 C.2     1  ZINC000541252362   -0.0500
     20 Cl20       -4.2548    1.5602   51.4580 Cl      1  ZINC000541252362   -0.0200
     21 C21        -6.6702    2.8073   51.6269 C.2     1  ZINC000541252362   -0.0900
     22 C22        -8.0009    2.8456   51.9101 C.2     1  ZINC000541252362    0.0200
     23 Cl23       -8.9045    4.3099   51.6796 Cl      1  ZINC000541252362   -0.0100
     24 C24        -8.6384    1.6837   52.3923 C.2     1  ZINC000541252362    0.2200
     25 N25        -9.8934    1.4326   52.7382 N.2     1  ZINC000541252362   -0.4300
     26 C26       -10.5913   -0.9577   57.9695 C.ar    1  ZINC000541252362   -0.0800
     27 N27        -9.4504   -0.2976   61.4512 N.2     1  ZINC000541252362   -0.3100
     28 H28        -7.1412   -0.3811   63.4766 H       1  ZINC000541252362    0.0800
     29 H29        -6.9623    1.3393   63.0563 H       1  ZINC000541252362    0.0900
     30 H30        -8.4812    0.7519   63.7749 H       1  ZINC000541252362    0.0900
     31 H31        -6.5582    0.8275   60.4737 H       1  ZINC000541252362    0.2200
     32 H32       -11.9037   -1.1999   61.0853 H       1  ZINC000541252362    0.1300
     33 H33       -13.8201   -2.0296   59.7866 H       1  ZINC000541252362    0.1300
     34 H34       -13.6798   -2.1813   57.3365 H       1  ZINC000541252362    0.1300
     35 H35       -11.7358   -2.3727   55.4093 H       1  ZINC000541252362    0.4100
     36 H36       -11.2355   -1.5616   53.3193 H       1  ZINC000541252362    0.1200
     37 H37       -12.1173   -0.0222   53.1743 H       1  ZINC000541252362    0.1200
     38 H38        -8.5293   -1.4386   53.2859 H       1  ZINC000541252362    0.1900
     39 H39        -6.0159   -0.4016   52.4234 H       1  ZINC000541252362    0.1800
     40 H40        -6.1684    3.6895   51.2575 H       1  ZINC000541252362    0.1600
     41 H41        -9.6872   -0.6588   57.4599 H       1  ZINC000541252362    0.1500
@<TRIPOS>BOND
     1     1     2    1
     2     1    28    1
     3     1    29    1
     4     1    30    1
     5     2    27    1
     6     2     3    1
     7     3     4    2
     8     3    31    1
     9     4     5    1
    10     5     6    1
    11     5    27    2
    12     6    26   ar
    13     6     7   ar
    14     7     8   ar
    15     7    32    1
    16     8     9   ar
    17     8    33    1
    18     9    10   ar
    19     9    34    1
    20    10    11    1
    21    10    26   ar
    22    11    12   am
    23    11    35    1
    24    12    13    2
    25    12    14    1
    26    14    15    1
    27    14    36    1
    28    14    37    1
    29    15    25    1
    30    15    16    2
    31    16    17    1
    32    16    38    1
    33    17    24    1
    34    17    18    1
    35    18    19    2
    36    18    39    1
    37    19    20    1
    38    19    21    1
    39    21    22    2
    40    21    40    1
    41    22    23    1
    42    22    24    1
    43    24    25    2
    44    26    41    1
@<TRIPOS>SUBSTRUCTURE
     1 ZINC000541252362        1 TEMP              0 ****  ****    0 ROOT


##########                                Name:    ZINC000797321835
##########                DOCK_Rotatable_Bonds:                   4
##########                         Heavy_Atoms:                  22
##########                    Molecular_Weight:             381.253
##########                DOCK_Rotatable_Bonds:                   4
##########                       Formal_Charge:           0.0200001
##########                     HBond_Acceptors:                   7
##########                        HBond_Donors:                   1
##########                         Heavy_Atoms:                  22
##########                          Grid_Score:          -31.487768
##########                     Grid_vdw_energy:          -30.630293
##########                      Grid_es_energy:           -0.857475
##########           Internal_energy_repulsive:           10.981164

@<TRIPOS>MOLECULE
ZINC000797321835
 35 37 1 0 0
SMALL
USER_CHARGES


@<TRIPOS>ATOM
      1 C1         -6.8322   -0.5979   52.4353 C.3     1  ZINC000797321835    0.1000
      2 N2         -7.1994    0.8041   52.2218 N.am    1  ZINC000797321835   -0.6000
      3 C3         -8.1156    1.4673   52.9481 C.2     1  ZINC000797321835    0.5200
      4 O4         -8.7551    0.9910   53.8619 O.2     1  ZINC000797321835   -0.5200
      5 C5         -8.2326    2.8945   52.4603 C.3     1  ZINC000797321835   -0.1500
      6 C6         -6.9592    3.1102   51.6101 C.3     1  ZINC000797321835   -0.1200
      7 C7         -6.6097    1.6669   51.1912 C.3     1  ZINC000797321835    0.1200
      8 H8         -7.0494    1.4389   50.2203 H       1  ZINC000797321835    0.1100
      9 C9         -5.1145    1.4859   51.1412 C.2     1  ZINC000797321835    0.4900
     10 O10        -4.6345    0.3759   51.2326 O.2     1  ZINC000797321835   -0.4400
     11 N11        -4.3106    2.5578   50.9950 N.am    1  ZINC000797321835   -0.6500
     12 C12        -2.9267    2.3903   50.9487 C.ar    1  ZINC000797321835    0.3000
     13 C13        -2.1379    2.7986   52.0250 C.ar    1  ZINC000797321835   -0.1400
     14 C14        -0.7703    2.6129   51.9361 C.ar    1  ZINC000797321835   -0.0800
     15 C15        -0.2620    2.0258   50.7698 C.ar    1  ZINC000797321835    0.1100
     16 C16         1.1908    1.8044   50.6239 C.2     1  ZINC000797321835   -0.1400
     17 C17         1.8474    1.6930   49.4513 C.2     1  ZINC000797321835   -0.0900
     18 C18         3.2061    1.4885   49.5684 C.2     1  ZINC000797321835   -0.0900
     19 C19         3.6640    1.4319   50.8240 C.2     1  ZINC000797321835   -0.2000
     20 Br20        5.4711    1.1632   51.3120 Br      1  ZINC000797321835    0.0200
     21 S21         2.3333    1.6525   51.9524 S.3     1  ZINC000797321835    0.1900
     22 N22        -1.0924    1.6686   49.7960 N.ar    1  ZINC000797321835   -0.1900
     23 N23        -2.3614    1.8387   49.8857 N.ar    1  ZINC000797321835   -0.2200
     24 H24        -6.0113   -0.6536   53.1503 H       1  ZINC000797321835    0.0700
     25 H25        -7.6916   -1.1432   52.8255 H       1  ZINC000797321835    0.0800
     26 H26        -6.5205   -1.0401   51.4890 H       1  ZINC000797321835    0.0700
     27 H27        -9.1257    3.0162   51.8474 H       1  ZINC000797321835    0.1100
     28 H28        -8.2501    3.5856   53.3031 H       1  ZINC000797321835    0.1100
     29 H29        -7.1718    3.7311   50.7397 H       1  ZINC000797321835    0.1100
     30 H30        -6.1584    3.5429   52.2097 H       1  ZINC000797321835    0.0900
     31 H31        -4.6944    3.4456   50.9218 H       1  ZINC000797321835    0.4200
     32 H32        -2.5822    3.2468   52.9014 H       1  ZINC000797321835    0.1600
     33 H33        -0.1145    2.9114   52.7406 H       1  ZINC000797321835    0.1500
     34 H34         1.3483    1.7585   48.4957 H       1  ZINC000797321835    0.1600
     35 H35         3.8525    1.3816   48.7100 H       1  ZINC000797321835    0.1600
@<TRIPOS>BOND
     1     1     2    1
     2     1    24    1
     3     1    25    1
     4     1    26    1
     5     2     7    1
     6     2     3   am
     7     3     4    2
     8     3     5    1
     9     5     6    1
    10     5    27    1
    11     5    28    1
    12     6     7    1
    13     6    29    1
    14     6    30    1
    15     7     8    1
    16     7     9    1
    17     9    10    2
    18     9    11   am
    19    11    12    1
    20    11    31    1
    21    12    23   ar
    22    12    13   ar
    23    13    14   ar
    24    13    32    1
    25    14    15   ar
    26    14    33    1
    27    15    16    1
    28    15    22   ar
    29    16    21    1
    30    16    17    2
    31    17    18    1
    32    17    34    1
    33    18    19    2
    34    18    35    1
    35    19    20    1
    36    19    21    1
    37    22    23   ar
@<TRIPOS>SUBSTRUCTURE
     1 ZINC000797321835        1 TEMP              0 ****  ****    0 ROOT


##########                                Name:    ZINC000532153088
##########                DOCK_Rotatable_Bonds:                  11
##########                         Heavy_Atoms:                  29
##########                    Molecular_Weight:             402.484
##########                DOCK_Rotatable_Bonds:                  11
##########                       Formal_Charge:          -0.0200009
##########                     HBond_Acceptors:                   6
##########                        HBond_Donors:                   1
##########                         Heavy_Atoms:                  29
##########                          Grid_Score:          -31.467535
##########                     Grid_vdw_energy:          -31.553326
##########                      Grid_es_energy:            0.085791
##########           Internal_energy_repulsive:           16.948437

@<TRIPOS>MOLECULE
ZINC000532153088
 57 59 1 0 0
SMALL
USER_CHARGES


@<TRIPOS>ATOM
      1 C1         -9.5436    0.7920   60.5639 C.3     1  ZINC000532153088   -0.1800
      2 C2        -10.3708    0.1225   61.6632 C.3     1  ZINC000532153088    0.0800
      3 C3        -10.5595    1.0989   62.8259 C.3     1  ZINC000532153088   -0.1500
      4 O4        -11.6479   -0.2477   61.1399 O.3     1  ZINC000532153088   -0.3800
      5 C5        -11.5939   -1.2734   60.1464 C.3     1  ZINC000532153088    0.1000
      6 C6        -12.9947   -1.6722   59.7594 C.ar    1  ZINC000532153088   -0.0700
      7 C7        -14.0538   -1.3754   60.5964 C.ar    1  ZINC000532153088   -0.1000
      8 C8        -15.3390   -1.7412   60.2413 C.ar    1  ZINC000532153088   -0.1100
      9 C9        -15.5647   -2.4032   59.0492 C.ar    1  ZINC000532153088   -0.1200
     10 C10       -14.5053   -2.6992   58.2115 C.ar    1  ZINC000532153088   -0.1000
     11 C11       -13.2212   -2.3297   58.5645 C.ar    1  ZINC000532153088   -0.1100
     12 C12       -12.0664   -2.6523   57.6514 C.3     1  ZINC000532153088    0.1600
     13 N13       -12.1862   -1.8711   56.4178 N.am    1  ZINC000532153088   -0.7300
     14 C14       -11.1342   -1.7660   55.5820 C.2     1  ZINC000532153088    0.5100
     15 O15       -10.0880   -2.3168   55.8517 O.2     1  ZINC000532153088   -0.5000
     16 C16       -11.2580   -0.9639   54.3122 C.3     1  ZINC000532153088    0.0300
     17 N17       -10.3885    0.2174   54.3924 N.3     1  ZINC000532153088   -0.4800
     18 C18       -10.1546    0.7904   53.0602 C.3     1  ZINC000532153088    0.1000
     19 C19        -8.6909    0.6848   52.7178 C.ar    1  ZINC000532153088   -0.1300
     20 C20        -8.1099   -0.5570   52.5448 C.ar    1  ZINC000532153088   -0.0600
     21 C21        -6.7675   -0.6554   52.2302 C.ar    1  ZINC000532153088   -0.1700
     22 C22        -6.0034    0.4904   52.0882 C.ar    1  ZINC000532153088    0.1300
     23 F23        -4.6914    0.3940   51.7802 F       1  ZINC000532153088   -0.1300
     24 C24        -6.5844    1.7350   52.2612 C.ar    1  ZINC000532153088   -0.2000
     25 C25        -7.9297    1.8325   52.5709 C.ar    1  ZINC000532153088    0.1600
     26 F26        -8.4980    3.0464   52.7402 F       1  ZINC000532153088   -0.1100
     27 C27       -10.9480    1.2219   55.3067 C.3     1  ZINC000532153088    0.0200
     28 C28       -10.5388    1.1428   56.7788 C.3     1  ZINC000532153088   -0.2200
     29 C29        -9.9866    2.2592   55.8904 C.3     1  ZINC000532153088   -0.1700
     30 H30        -8.5695    1.0743   60.9631 H       1  ZINC000532153088    0.0700
     31 H31        -9.4093    0.0963   59.7357 H       1  ZINC000532153088    0.0600
     32 H32       -10.0631    1.6825   60.2098 H       1  ZINC000532153088    0.0700
     33 H33        -9.8513   -0.7681   62.0174 H       1  ZINC000532153088    0.0600
     34 H34       -11.0790    1.9894   62.4718 H       1  ZINC000532153088    0.0600
     35 H35       -11.1487    0.6219   63.6090 H       1  ZINC000532153088    0.0600
     36 H36        -9.5853    1.3812   63.2250 H       1  ZINC000532153088    0.0700
     37 H37       -11.0663   -0.9013   59.2682 H       1  ZINC000532153088    0.0600
     38 H38       -11.0671   -2.1396   60.5468 H       1  ZINC000532153088    0.0600
     39 H39       -13.8775   -0.8581   61.5279 H       1  ZINC000532153088    0.1300
     40 H40       -16.1665   -1.5100   60.8956 H       1  ZINC000532153088    0.1200
     41 H41       -16.5685   -2.6895   58.7721 H       1  ZINC000532153088    0.1300
     42 H42       -14.6817   -3.2167   57.2801 H       1  ZINC000532153088    0.1300
     43 H43       -11.1291   -2.4037   58.1493 H       1  ZINC000532153088    0.0800
     44 H44       -12.0793   -3.7153   57.4109 H       1  ZINC000532153088    0.0800
     45 H45       -13.0227   -1.4296   56.2028 H       1  ZINC000532153088    0.4000
     46 H46       -10.9584   -1.5786   53.4633 H       1  ZINC000532153088    0.0700
     47 H47       -12.2925   -0.6455   54.1830 H       1  ZINC000532153088    0.1100
     48 H48       -10.7408    0.2437   52.3215 H       1  ZINC000532153088    0.0900
     49 H49       -10.4536    1.8386   53.0579 H       1  ZINC000532153088    0.0500
     50 H50        -8.7050   -1.4514   52.6557 H       1  ZINC000532153088    0.1400
     51 H51        -6.3143   -1.6264   52.0955 H       1  ZINC000532153088    0.1400
     52 H52        -5.9891    2.6294   52.1506 H       1  ZINC000532153088    0.1500
     53 H53       -11.9640    1.5469   55.0831 H       1  ZINC000532153088    0.1200
     54 H54       -11.2859    1.4158   57.5242 H       1  ZINC000532153088    0.1000
     55 H55        -9.8545    0.3454   57.0690 H       1  ZINC000532153088    0.1000
     56 H56        -8.9390    2.1963   55.5959 H       1  ZINC000532153088    0.1000
     57 H57       -10.3704    3.2667   56.0511 H       1  ZINC000532153088    0.1000
@<TRIPOS>BOND
     1     1     2    1
     2     1    30    1
     3     1    31    1
     4     1    32    1
     5     2     3    1
     6     2     4    1
     7     2    33    1
     8     3    34    1
     9     3    35    1
    10     3    36    1
    11     4     5    1
    12     5     6    1
    13     5    37    1
    14     5    38    1
    15     6    11   ar
    16     6     7   ar
    17     7     8   ar
    18     7    39    1
    19     8     9   ar
    20     8    40    1
    21     9    10   ar
    22     9    41    1
    23    10    11   ar
    24    10    42    1
    25    11    12    1
    26    12    13    1
    27    12    43    1
    28    12    44    1
    29    13    14   am
    30    13    45    1
    31    14    15    2
    32    14    16    1
    33    16    17    1
    34    16    46    1
    35    16    47    1
    36    17    18    1
    37    17    27    1
    38    18    19    1
    39    18    48    1
    40    18    49    1
    41    19    25   ar
    42    19    20   ar
    43    20    21   ar
    44    20    50    1
    45    21    22   ar
    46    21    51    1
    47    22    23    1
    48    22    24   ar
    49    24    25   ar
    50    24    52    1
    51    25    26    1
    52    27    29    1
    53    27    28    1
    54    27    53    1
    55    28    29    1
    56    28    54    1
    57    28    55    1
    58    29    56    1
    59    29    57    1
@<TRIPOS>SUBSTRUCTURE
     1 ZINC000532153088        1 TEMP              0 ****  ****    0 ROOT


##########                                Name:    ZINC001328997126
##########                DOCK_Rotatable_Bonds:                   7
##########                         Heavy_Atoms:                  26
##########                    Molecular_Weight:             388.488
##########                DOCK_Rotatable_Bonds:                   7
##########                       Formal_Charge:           0.0299993
##########                     HBond_Acceptors:                  10
##########                        HBond_Donors:                   1
##########                         Heavy_Atoms:                  26
##########                          Grid_Score:          -31.465935
##########                     Grid_vdw_energy:          -29.066914
##########                      Grid_es_energy:           -2.399022
##########           Internal_energy_repulsive:            8.990751

@<TRIPOS>MOLECULE
ZINC001328997126
 54 56 1 0 0
SMALL
USER_CHARGES


@<TRIPOS>ATOM
      1 C1        -15.2267   -2.3836   60.8629 C.3     1  ZINC001328997126   -0.1700
      2 C2        -16.1682   -2.6654   59.6901 C.3     1  ZINC001328997126    0.1400
      3 N3        -16.1127   -1.5511   58.7408 N.am    1  ZINC001328997126   -0.6300
      4 C4        -15.2415   -1.4777   57.5579 C.3     1  ZINC001328997126    0.0700
      5 C5        -15.5886   -0.1136   56.9307 C.3     1  ZINC001328997126    0.0700
      6 H6        -15.9874   -0.2459   55.9249 H       1  ZINC001328997126    0.1200
      7 C7        -14.3563    0.7929   56.9026 C.3     1  ZINC001328997126    0.0500
      8 N8        -13.3038    0.1636   56.0940 N.3     1  ZINC001328997126   -0.5300
      9 C9        -12.0455    0.9167   56.1889 C.3     1  ZINC001328997126    0.0500
     10 C10       -10.9564    0.1870   55.3989 C.3     1  ZINC001328997126    0.0600
     11 N11       -11.3800    0.0489   53.9985 N.3     1  ZINC001328997126   -0.5200
     12 C12       -10.3274   -0.5805   53.1898 C.3     1  ZINC001328997126    0.0400
     13 C13        -9.3968    0.4809   52.6623 C.2     1  ZINC001328997126    0.5200
     14 O14        -9.7869    1.6227   52.5394 O.2     1  ZINC001328997126   -0.5100
     15 N15        -8.1312    0.1613   52.3270 N.am    1  ZINC001328997126   -0.7300
     16 C16        -7.2270    1.1929   51.8126 C.3     1  ZINC001328997126    0.1600
     17 H17        -7.8018    1.9535   51.2841 H       1  ZINC001328997126    0.1100
     18 C18        -6.4629    1.8406   52.9806 C.3     1  ZINC001328997126   -0.1400
     19 C19        -5.3090    2.6646   52.3533 C.3     1  ZINC001328997126   -0.5800
     20 S20        -4.6804    1.5413   51.0485 S.o2    1  ZINC001328997126    2.4000
     21 O21        -4.4415    2.2853   49.8616 O.2     1  ZINC001328997126   -0.9300
     22 O22        -3.6535    0.7206   51.5882 O.2     1  ZINC001328997126   -0.9300
     23 C23        -6.2054    0.5540   50.8508 C.3     1  ZINC001328997126   -0.6100
     24 C24       -12.6382   -0.7043   53.9036 C.3     1  ZINC001328997126    0.0500
     25 C25       -13.7273    0.0254   54.6936 C.3     1  ZINC001328997126    0.0600
     26 O26       -16.6081    0.4328   57.8166 O.3     1  ZINC001328997126   -0.3100
     27 C27       -16.8515   -0.4349   58.8052 C.2     1  ZINC001328997126    0.6400
     28 O28       -17.6623   -0.2264   59.6857 O.2     1  ZINC001328997126   -0.5200
     29 H29       -14.2077   -2.2725   60.4921 H       1  ZINC001328997126    0.0600
     30 H30       -15.5337   -1.4649   61.3626 H       1  ZINC001328997126    0.0600
     31 H31       -15.2680   -3.2127   61.5692 H       1  ZINC001328997126    0.0700
     32 H32       -15.8611   -3.5842   59.1904 H       1  ZINC001328997126    0.0900
     33 H33       -17.1872   -2.7765   60.0609 H       1  ZINC001328997126    0.0900
     34 H34       -14.1925   -1.5079   57.8524 H       1  ZINC001328997126    0.0900
     35 H35       -15.4689   -2.2871   56.8641 H       1  ZINC001328997126    0.0900
     36 H36       -14.6233    1.7554   56.4663 H       1  ZINC001328997126    0.0900
     37 H37       -13.9926    0.9432   57.9191 H       1  ZINC001328997126    0.0600
     38 H38       -12.1873    1.9153   55.7755 H       1  ZINC001328997126    0.0500
     39 H39       -11.7462    0.9947   57.2341 H       1  ZINC001328997126    0.0900
     40 H40       -10.0296    0.7588   55.4439 H       1  ZINC001328997126    0.0800
     41 H41       -10.7956   -0.8014   55.8293 H       1  ZINC001328997126    0.0500
     42 H42        -9.7659   -1.2821   53.8068 H       1  ZINC001328997126    0.1100
     43 H43       -10.7812   -1.1138   52.3544 H       1  ZINC001328997126    0.0700
     44 H44        -7.8189   -0.7516   52.4263 H       1  ZINC001328997126    0.4100
     45 H45        -7.1271    2.4966   53.5432 H       1  ZINC001328997126    0.1100
     46 H46        -6.0576    1.0688   53.6351 H       1  ZINC001328997126    0.0900
     47 H47        -5.6866    3.5899   51.9182 H       1  ZINC001328997126    0.1400
     48 H48        -4.5347    2.8709   53.0922 H       1  ZINC001328997126    0.1400
     49 H49        -6.0223   -0.4847   51.1264 H       1  ZINC001328997126    0.1400
     50 H50        -6.5662    0.6161   49.8242 H       1  ZINC001328997126    0.1500
     51 H51       -12.9375   -0.7822   52.8584 H       1  ZINC001328997126    0.1000
     52 H52       -12.4964   -1.7028   54.3170 H       1  ZINC001328997126    0.0400
     53 H53       -14.6541   -0.5464   54.6486 H       1  ZINC001328997126    0.0800
     54 H54       -13.8882    1.0139   54.2632 H       1  ZINC001328997126    0.0500
@<TRIPOS>BOND
     1     1     2    1
     2     1    29    1
     3     1    30    1
     4     1    31    1
     5     2     3    1
     6     2    32    1
     7     2    33    1
     8     3    27   am
     9     3     4    1
    10     4     5    1
    11     4    34    1
    12     4    35    1
    13     5     6    1
    14     5     7    1
    15     5    26    1
    16     7     8    1
    17     7    36    1
    18     7    37    1
    19     8    25    1
    20     8     9    1
    21     9    10    1
    22     9    38    1
    23     9    39    1
    24    10    11    1
    25    10    40    1
    26    10    41    1
    27    11    12    1
    28    11    24    1
    29    12    13    1
    30    12    42    1
    31    12    43    1
    32    13    14    2
    33    13    15   am
    34    15    16    1
    35    15    44    1
    36    16    17    1
    37    16    23    1
    38    16    18    1
    39    18    19    1
    40    18    45    1
    41    18    46    1
    42    19    20    1
    43    19    47    1
    44    19    48    1
    45    20    21    2
    46    20    22    2
    47    20    23    1
    48    23    49    1
    49    23    50    1
    50    24    25    1
    51    24    51    1
    52    24    52    1
    53    25    53    1
    54    25    54    1
    55    26    27    1
    56    27    28    2
@<TRIPOS>SUBSTRUCTURE
     1 ZINC001328997126        1 TEMP              0 ****  ****    0 ROOT


##########                                Name:    ZINC000805177769
##########                DOCK_Rotatable_Bonds:                  10
##########                         Heavy_Atoms:                  30
##########                    Molecular_Weight:             417.548
##########                DOCK_Rotatable_Bonds:                  10
##########                       Formal_Charge:           0.0199995
##########                     HBond_Acceptors:                   7
##########                        HBond_Donors:                   1
##########                         Heavy_Atoms:                  30
##########                          Grid_Score:          -31.438923
##########                     Grid_vdw_energy:          -30.904060
##########                      Grid_es_energy:           -0.534863
##########           Internal_energy_repulsive:           57.515656

@<TRIPOS>MOLECULE
ZINC000805177769
 65 66 1 0 0
SMALL
USER_CHARGES


@<TRIPOS>ATOM
      1 C1        -10.5634    0.6754   53.9509 C.3     1  ZINC000805177769   -0.1200
      2 C2         -9.4656    1.2749   53.1103 C.ar    1  ZINC000805177769   -0.0800
      3 C3         -9.5756    2.5752   52.6552 C.ar    1  ZINC000805177769   -0.1200
      4 C4         -8.5684    3.1252   51.8840 C.ar    1  ZINC000805177769   -0.1100
      5 C5         -7.4514    2.3747   51.5685 C.ar    1  ZINC000805177769   -0.0900
      6 C6         -6.3539    2.9741   50.7276 C.3     1  ZINC000805177769   -0.0900
      7 C7         -5.1901    3.3904   51.6294 C.3     1  ZINC000805177769    0.1500
      8 H8         -5.2002    2.7874   52.5373 H       1  ZINC000805177769    0.1000
      9 C9         -5.3336    4.8686   51.9973 C.3     1  ZINC000805177769   -0.1700
     10 N10        -3.9249    3.1843   50.9203 N.am    1  ZINC000805177769   -0.6900
     11 C11        -2.8083    2.8766   51.6096 C.2     1  ZINC000805177769    0.5100
     12 O12        -2.8508    2.7718   52.8178 O.2     1  ZINC000805177769   -0.5100
     13 C13        -1.5181    2.6645   50.8860 C.2     1  ZINC000805177769    0.5200
     14 O14        -1.5167    2.1565   49.7841 O.2     1  ZINC000805177769   -0.5200
     15 N15        -0.3558    3.0376   51.4575 N.am    1  ZINC000805177769   -0.5900
     16 C16        -0.2132    3.6615   52.7811 C.3     1  ZINC000805177769    0.1100
     17 C17         1.2946    3.8840   53.0228 C.3     1  ZINC000805177769   -0.1500
     18 C18         1.9552    2.8576   52.0648 C.3     1  ZINC000805177769    0.1500
     19 H19         1.9874    1.8661   52.5166 H       1  ZINC000805177769    0.1200
     20 N20         3.2963    3.2955   51.6700 N.am    1  ZINC000805177769   -0.5900
     21 C21         4.0584    4.1960   52.5387 C.3     1  ZINC000805177769    0.0800
     22 C22         3.8290    2.8703   50.5073 C.2     1  ZINC000805177769    0.6600
     23 O23         4.9407    3.2349   50.1789 O.2     1  ZINC000805177769   -0.5600
     24 O24         3.1293    2.0416   49.7094 O.3     1  ZINC000805177769   -0.3600
     25 C25         3.2866    2.2172   48.2767 C.3     1  ZINC000805177769    0.1400
     26 C26         3.1531    3.7008   47.9269 C.3     1  ZINC000805177769   -0.1800
     27 C27         4.6673    1.7149   47.8499 C.3     1  ZINC000805177769   -0.1400
     28 C28         2.2052    1.4211   47.5435 C.3     1  ZINC000805177769   -0.1800
     29 C29         0.9835    2.8820   50.8614 C.3     1  ZINC000805177769    0.0900
     30 C30        -7.3408    1.0744   52.0250 C.ar    1  ZINC000805177769   -0.0800
     31 C31        -6.1228    0.2563   51.6814 C.3     1  ZINC000805177769   -0.1200
     32 C32        -8.3459    0.5259   52.7991 C.ar    1  ZINC000805177769   -0.1200
     33 H33       -10.3632    0.8723   55.0041 H       1  ZINC000805177769    0.0700
     34 H34       -11.5184    1.1213   53.6731 H       1  ZINC000805177769    0.0700
     35 H35       -10.6025   -0.4010   53.7836 H       1  ZINC000805177769    0.0700
     36 H36       -10.4483    3.1616   52.9017 H       1  ZINC000805177769    0.1200
     37 H37        -8.6547    4.1411   51.5278 H       1  ZINC000805177769    0.1200
     38 H38        -6.0069    2.2367   50.0039 H       1  ZINC000805177769    0.0800
     39 H39        -6.7361    3.8484   50.2007 H       1  ZINC000805177769    0.0900
     40 H40        -5.3236    5.4716   51.0894 H       1  ZINC000805177769    0.0600
     41 H41        -6.2750    5.0219   52.5250 H       1  ZINC000805177769    0.0700
     42 H42        -4.5045    5.1652   52.6398 H       1  ZINC000805177769    0.0600
     43 H43        -3.8906    3.2693   49.9546 H       1  ZINC000805177769    0.4100
     44 H44        -0.7365    4.6175   52.7987 H       1  ZINC000805177769    0.0900
     45 H45        -0.6180    3.0009   53.5478 H       1  ZINC000805177769    0.0900
     46 H46         1.5820    4.9010   52.7559 H       1  ZINC000805177769    0.0900
     47 H47         1.5552    3.6677   54.0588 H       1  ZINC000805177769    0.0900
     48 H48         4.6544    3.6087   53.2373 H       1  ZINC000805177769    0.0600
     49 H49         4.7172    4.8160   51.9309 H       1  ZINC000805177769    0.0800
     50 H50         3.3703    4.8332   53.0945 H       1  ZINC000805177769    0.0800
     51 H51         3.9235    4.2680   48.4493 H       1  ZINC000805177769    0.0600
     52 H52         3.2712    3.8325   46.8515 H       1  ZINC000805177769    0.0700
     53 H53         2.1694    4.0586   48.2310 H       1  ZINC000805177769    0.0900
     54 H54         4.7625    0.6581   48.0991 H       1  ZINC000805177769    0.0700
     55 H55         4.7855    1.8467   46.7745 H       1  ZINC000805177769    0.0800
     56 H56         5.4378    2.2822   48.3723 H       1  ZINC000805177769    0.0700
     57 H57         1.2216    1.7789   47.8474 H       1  ZINC000805177769    0.0900
     58 H58         2.3234    1.5528   46.4680 H       1  ZINC000805177769    0.0700
     59 H59         2.3004    0.3642   47.7927 H       1  ZINC000805177769    0.0600
     60 H60         1.0478    1.9482   50.3030 H       1  ZINC000805177769    0.0900
     61 H61         1.2048    3.7292   50.2123 H       1  ZINC000805177769    0.0800
     62 H62        -5.3620    0.3973   52.4492 H       1  ZINC000805177769    0.0700
     63 H63        -6.3957   -0.7977   51.6297 H       1  ZINC000805177769    0.0700
     64 H64        -5.7295    0.5775   50.7169 H       1  ZINC000805177769    0.0700
     65 H65        -8.2596   -0.4899   53.1557 H       1  ZINC000805177769    0.1200
@<TRIPOS>BOND
     1     1     2    1
     2     1    33    1
     3     1    34    1
     4     1    35    1
     5     2    32   ar
     6     2     3   ar
     7     3     4   ar
     8     3    36    1
     9     4     5   ar
    10     4    37    1
    11     5     6    1
    12     5    30   ar
    13     6     7    1
    14     6    38    1
    15     6    39    1
    16     7     8    1
    17     7     9    1
    18     7    10    1
    19     9    40    1
    20     9    41    1
    21     9    42    1
    22    10    11   am
    23    10    43    1
    24    11    12    2
    25    11    13    1
    26    13    14    2
    27    13    15   am
    28    15    29    1
    29    15    16    1
    30    16    17    1
    31    16    44    1
    32    16    45    1
    33    17    18    1
    34    17    46    1
    35    17    47    1
    36    18    19    1
    37    18    20    1
    38    18    29    1
    39    20    21    1
    40    20    22   am
    41    21    48    1
    42    21    49    1
    43    21    50    1
    44    22    23    2
    45    22    24    1
    46    24    25    1
    47    25    26    1
    48    25    27    1
    49    25    28    1
    50    26    51    1
    51    26    52    1
    52    26    53    1
    53    27    54    1
    54    27    55    1
    55    27    56    1
    56    28    57    1
    57    28    58    1
    58    28    59    1
    59    29    60    1
    60    29    61    1
    61    30    31    1
    62    30    32   ar
    63    31    62    1
    64    31    63    1
    65    31    64    1
    66    32    65    1
@<TRIPOS>SUBSTRUCTURE
     1 ZINC000805177769        1 TEMP              0 ****  ****    0 ROOT


##########                                Name:    ZINC001041713551
##########                DOCK_Rotatable_Bonds:                  10
##########                         Heavy_Atoms:                  22
##########                    Molecular_Weight:             330.448
##########                DOCK_Rotatable_Bonds:                  10
##########                       Formal_Charge:          -0.0100006
##########                     HBond_Acceptors:                   7
##########                        HBond_Donors:                   2
##########                         Heavy_Atoms:                  22
##########                          Grid_Score:          -31.420559
##########                     Grid_vdw_energy:          -30.124912
##########                      Grid_es_energy:           -1.295647
##########           Internal_energy_repulsive:            6.078674

@<TRIPOS>MOLECULE
ZINC001041713551
 48 49 1 0 0
SMALL
USER_CHARGES


@<TRIPOS>ATOM
      1 C1        -10.1450   -3.0859   57.5245 C.3     1  ZINC001041713551   -0.1500
      2 C2        -11.4968   -2.5959   57.0013 C.3     1  ZINC001041713551   -0.1100
      3 C3        -11.2716   -1.5717   55.8872 C.3     1  ZINC001041713551   -0.1000
      4 S4        -10.6530   -0.0245   56.6041 S.3     1  ZINC001041713551   -0.1800
      5 C5        -10.7897    1.1471   55.2261 C.3     1  ZINC001041713551   -0.1300
      6 C6        -10.0645    0.5970   54.0251 C.2     1  ZINC001041713551    0.5300
      7 O7        -10.6400   -0.1430   53.2556 O.2     1  ZINC001041713551   -0.5100
      8 N8         -8.7763    0.9272   53.8061 N.am    1  ZINC001041713551   -0.7300
      9 C9         -8.0717    0.3937   52.6377 C.3     1  ZINC001041713551    0.1000
     10 C10        -7.1112    1.4531   52.0937 C.3     1  ZINC001041713551    0.0900
     11 O11        -7.6088    2.7845   52.2409 O.3     1  ZINC001041713551   -0.5200
     12 C12        -5.6582    1.2756   52.5706 C.3     1  ZINC001041713551    0.0900
     13 N13        -5.2696    1.5986   51.1840 N.am    1  ZINC001041713551   -0.6400
     14 C14        -4.1623    2.1064   50.6073 C.2     1  ZINC001041713551    0.5500
     15 O15        -4.1247    2.2698   49.4062 O.2     1  ZINC001041713551   -0.5100
     16 C16        -2.9709    2.4712   51.4551 C.3     1  ZINC001041713551    0.0800
     17 H17        -2.9116    1.7958   52.3085 H       1  ZINC001041713551    0.0800
     18 C18        -3.1204    3.9111   51.9531 C.3     1  ZINC001041713551   -0.1500
     19 C19        -1.8784    4.2944   52.7635 C.3     1  ZINC001041713551   -0.1200
     20 C20        -0.6344    4.1078   51.8894 C.3     1  ZINC001041713551   -0.1600
     21 C21        -0.5809    2.6604   51.3938 C.3     1  ZINC001041713551    0.0600
     22 O22        -1.7788    2.3595   50.6751 O.3     1  ZINC001041713551   -0.3600
     23 C23        -6.5804    1.1423   50.6825 C.3     1  ZINC001041713551    0.1200
     24 H24        -9.5792   -2.2408   57.9166 H       1  ZINC001041713551    0.0600
     25 H25       -10.3055   -3.8155   58.3181 H       1  ZINC001041713551    0.0600
     26 H26        -9.5874   -3.5504   56.7112 H       1  ZINC001041713551    0.0600
     27 H27       -12.0626   -3.4410   56.6090 H       1  ZINC001041713551    0.0700
     28 H28       -12.0544   -2.1314   57.8146 H       1  ZINC001041713551    0.0700
     29 H29       -10.5413   -1.9611   55.1778 H       1  ZINC001041713551    0.0800
     30 H30       -12.2134   -1.3824   55.3720 H       1  ZINC001041713551    0.0800
     31 H31       -11.8409    1.2962   54.9789 H       1  ZINC001041713551    0.1100
     32 H32       -10.3455    2.1000   55.5138 H       1  ZINC001041713551    0.1100
     33 H33        -8.3156    1.5180   54.4222 H       1  ZINC001041713551    0.4000
     34 H34        -7.5083   -0.4935   52.9269 H       1  ZINC001041713551    0.0900
     35 H35        -8.7953    0.1292   51.8666 H       1  ZINC001041713551    0.0900
     36 H36        -8.4648    2.9336   51.8163 H       1  ZINC001041713551    0.3800
     37 H37        -5.3413    2.0205   53.3006 H       1  ZINC001041713551    0.0900
     38 H38        -5.4151    0.2558   52.8687 H       1  ZINC001041713551    0.1000
     39 H39        -3.2207    4.5829   51.1006 H       1  ZINC001041713551    0.0800
     40 H40        -4.0055    3.9880   52.5848 H       1  ZINC001041713551    0.0800
     41 H41        -1.9529    5.3366   53.0740 H       1  ZINC001041713551    0.0700
     42 H42        -1.8051    3.6548   53.6431 H       1  ZINC001041713551    0.0700
     43 H43        -0.6844    4.7836   51.0356 H       1  ZINC001041713551    0.0700
     44 H44         0.2586    4.3255   52.4754 H       1  ZINC001041713551    0.0800
     45 H45         0.2792    2.5327   50.7365 H       1  ZINC001041713551    0.1000
     46 H46        -0.4900    1.9873   52.2464 H       1  ZINC001041713551    0.0500
     47 H47        -6.6082    0.0832   50.4260 H       1  ZINC001041713551    0.1100
     48 H48        -6.9998    1.7808   49.9049 H       1  ZINC001041713551    0.1000
@<TRIPOS>BOND
     1     1     2    1
     2     1    24    1
     3     1    25    1
     4     1    26    1
     5     2     3    1
     6     2    27    1
     7     2    28    1
     8     3     4    1
     9     3    29    1
    10     3    30    1
    11     4     5    1
    12     5     6    1
    13     5    31    1
    14     5    32    1
    15     6     7    2
    16     6     8   am
    17     8     9    1
    18     8    33    1
    19     9    10    1
    20     9    34    1
    21     9    35    1
    22    10    23    1
    23    10    11    1
    24    10    12    1
    25    11    36    1
    26    12    13    1
    27    12    37    1
    28    12    38    1
    29    13    14   am
    30    13    23    1
    31    14    15    2
    32    14    16    1
    33    16    17    1
    34    16    22    1
    35    16    18    1
    36    18    19    1
    37    18    39    1
    38    18    40    1
    39    19    20    1
    40    19    41    1
    41    19    42    1
    42    20    21    1
    43    20    43    1
    44    20    44    1
    45    21    22    1
    46    21    45    1
    47    21    46    1
    48    23    47    1
    49    23    48    1
@<TRIPOS>SUBSTRUCTURE
     1 ZINC001041713551        1 TEMP              0 ****  ****    0 ROOT


##########                                Name:    ZINC001078748831
##########                DOCK_Rotatable_Bonds:                   6
##########                         Heavy_Atoms:                  23
##########                    Molecular_Weight:             333.417
##########                DOCK_Rotatable_Bonds:                   6
##########                       Formal_Charge:           0.0299999
##########                     HBond_Acceptors:                   9
##########                        HBond_Donors:                   2
##########                         Heavy_Atoms:                  23
##########                          Grid_Score:          -31.415356
##########                     Grid_vdw_energy:          -28.378580
##########                      Grid_es_energy:           -3.036775
##########           Internal_energy_repulsive:            5.019042

@<TRIPOS>MOLECULE
ZINC001078748831
 42 45 1 0 0
SMALL
USER_CHARGES


@<TRIPOS>ATOM
      1 C1         -0.3841    1.6662   57.8218 C.3     1  ZINC001078748831    0.1000
      2 N2         -1.3715    2.6744   57.4282 N.pl3   1  ZINC001078748831   -0.1400
      3 N3         -1.8168    3.5973   58.2037 N.2     1  ZINC001078748831   -0.2900
      4 C4         -2.6831    4.3291   57.5451 C.2     1  ZINC001078748831    0.0400
      5 C5         -2.7484    3.7740   56.2515 C.2     1  ZINC001078748831   -0.0500
      6 C6         -3.5818    4.2353   55.1213 C.2     1  ZINC001078748831    0.6200
      7 O7         -3.8948    5.4067   55.0355 O.2     1  ZINC001078748831   -0.5200
      8 N8         -3.9948    3.3570   54.1861 N.am    1  ZINC001078748831   -0.7000
      9 C9         -4.8223    3.8140   53.0669 C.3     1  ZINC001078748831    0.1500
     10 H10        -4.4551    4.7366   52.6172 H       1  ZINC001078748831    0.1100
     11 C11        -6.3291    3.8372   53.3818 C.3     1  ZINC001078748831   -0.1800
     12 C12        -6.3830    2.3845   52.8751 C.3     1  ZINC001078748831    0.0800
     13 H13        -6.2061    1.6427   53.6539 H       1  ZINC001078748831    0.1000
     14 N14        -7.5700    2.0872   52.0624 N.3     1  ZINC001078748831   -0.6700
     15 C15        -8.8030    2.3220   52.8256 C.3     1  ZINC001078748831    0.1400
     16 C16        -9.6597    1.0827   52.7899 C.2     1  ZINC001078748831    0.0600
     17 N17        -9.1967   -0.1151   52.5623 N.2     1  ZINC001078748831   -0.5700
     18 S18       -10.3884   -1.1207   52.6087 S.3     1  ZINC001078748831    0.6800
     19 N19       -11.5383   -0.1119   52.9145 N.2     1  ZINC001078748831   -0.5700
     20 C20       -11.0248    1.0839   53.0003 C.2     1  ZINC001078748831    0.0500
     21 C21        -5.1369    2.7176   52.0485 C.3     1  ZINC001078748831   -0.1000
     22 C22        -5.2388    3.0294   50.5551 C.3     1  ZINC001078748831   -0.1000
     23 C23        -3.8161    2.4555   50.4267 C.3     1  ZINC001078748831   -0.1400
     24 C24        -4.1082    1.6413   51.7002 C.3     1  ZINC001078748831   -0.1200
     25 N25        -1.9021    2.7553   56.2597 N.2     1  ZINC001078748831   -0.2500
     26 H26         0.6190    2.0412   57.6185 H       1  ZINC001078748831    0.1000
     27 H27        -0.4844    1.4557   58.8866 H       1  ZINC001078748831    0.1100
     28 H28        -0.5523    0.7515   57.2532 H       1  ZINC001078748831    0.1100
     29 H29        -3.2331    5.1807   57.9174 H       1  ZINC001078748831    0.2100
     30 H30        -3.7440    2.4225   54.2540 H       1  ZINC001078748831    0.4100
     31 H31        -6.5510    3.9370   54.4443 H       1  ZINC001078748831    0.0700
     32 H32        -6.8930    4.5358   52.7636 H       1  ZINC001078748831    0.1000
     33 H33        -7.5664    2.6232   51.2075 H       1  ZINC001078748831    0.3500
     34 H34        -8.5510    2.5599   53.8590 H       1  ZINC001078748831    0.1000
     35 H35        -9.3505    3.1549   52.3843 H       1  ZINC001078748831    0.0600
     36 H36       -11.6016    1.9736   53.2062 H       1  ZINC001078748831    0.2000
     37 H37        -5.9961    2.4418   50.0361 H       1  ZINC001078748831    0.1000
     38 H38        -5.3023    4.0948   50.3339 H       1  ZINC001078748831    0.0700
     39 H39        -3.6728    1.8396   49.5387 H       1  ZINC001078748831    0.0700
     40 H40        -3.0317    3.2011   50.5562 H       1  ZINC001078748831    0.0800
     41 H41        -3.2685    1.5979   52.3939 H       1  ZINC001078748831    0.0700
     42 H42        -4.5477    0.6635   51.5032 H       1  ZINC001078748831    0.0900
@<TRIPOS>BOND
     1     1     2    1
     2     1    26    1
     3     1    27    1
     4     1    28    1
     5     2    25    1
     6     2     3    1
     7     3     4    2
     8     4     5    1
     9     4    29    1
    10     5     6    1
    11     5    25    2
    12     6     7    2
    13     6     8   am
    14     8     9    1
    15     8    30    1
    16     9    10    1
    17     9    21    1
    18     9    11    1
    19    11    12    1
    20    11    31    1
    21    11    32    1
    22    12    13    1
    23    12    14    1
    24    12    21    1
    25    14    15    1
    26    14    33    1
    27    15    16    1
    28    15    34    1
    29    15    35    1
    30    16    20    1
    31    16    17    2
    32    17    18    1
    33    18    19    1
    34    19    20    2
    35    20    36    1
    36    21    24    1
    37    21    22    1
    38    22    23    1
    39    22    37    1
    40    22    38    1
    41    23    24    1
    42    23    39    1
    43    23    40    1
    44    24    41    1
    45    24    42    1
@<TRIPOS>SUBSTRUCTURE
     1 ZINC001078748831        1 TEMP              0 ****  ****    0 ROOT


##########                                Name:    ZINC000054627026
##########                DOCK_Rotatable_Bonds:                   5
##########                         Heavy_Atoms:                  28
##########                    Molecular_Weight:              370.37
##########                DOCK_Rotatable_Bonds:                   5
##########                       Formal_Charge:         6.85453e-07
##########                     HBond_Acceptors:                   8
##########                        HBond_Donors:                   2
##########                         Heavy_Atoms:                  28
##########                          Grid_Score:          -31.412397
##########                     Grid_vdw_energy:          -31.318771
##########                      Grid_es_energy:           -0.093626
##########           Internal_energy_repulsive:            5.128745

@<TRIPOS>MOLECULE
ZINC000054627026
 42 46 1 0 0
SMALL
USER_CHARGES


@<TRIPOS>ATOM
      1 O1         -6.1434   -0.2297   52.8731 O.2     1  ZINC000054627026   -0.5200
      2 C2         -7.0030    0.6066   52.6722 C.2     1  ZINC000054627026    0.6100
      3 N3         -6.6538    1.8756   52.3822 N.am    1  ZINC000054627026   -0.6500
      4 C4         -5.3011    2.2324   52.3178 C.ar    1  ZINC000054627026    0.1400
      5 C5         -4.7653    3.0920   53.2745 C.ar    1  ZINC000054627026   -0.0900
      6 C6         -3.4352    3.4508   53.2228 C.ar    1  ZINC000054627026   -0.0900
      7 C7         -2.6225    2.9551   52.2137 C.ar    1  ZINC000054627026    0.0500
      8 N8         -1.2861    3.1199   51.8935 N.pl3   1  ZINC000054627026   -0.5900
      9 C9         -1.0438    2.3714   50.7708 C.2     1  ZINC000054627026    0.3700
     10 C10         0.2552    2.2614   50.0908 C.2     1  ZINC000054627026    0.0200
     11 C11         1.4421    2.7519   50.5479 C.2     1  ZINC000054627026   -0.1200
     12 C12         2.4141    2.4207   49.5866 C.2     1  ZINC000054627026   -0.2200
     13 C13         1.7830    1.7515   48.5995 C.2     1  ZINC000054627026   -0.0100
     14 O14         0.4814    1.6529   48.9094 O.3     1  ZINC000054627026   -0.1700
     15 N15        -2.1479    1.7667   50.3948 N.2     1  ZINC000054627026   -0.4600
     16 C16        -3.1546    2.0868   51.2435 C.ar    1  ZINC000054627026    0.0700
     17 C17        -4.5039    1.7253   51.3088 C.ar    1  ZINC000054627026   -0.0900
     18 C18        -8.4277    0.2309   52.7400 C.2     1  ZINC000054627026   -0.1000
     19 C19        -9.4858    1.0882   52.6295 C.2     1  ZINC000054627026    0.1000
     20 N20       -10.6061    0.3424   52.7460 N.pl3   1  ZINC000054627026   -0.3100
     21 C21       -11.9285    0.8058   52.6933 C.ar    1  ZINC000054627026    0.1300
     22 C22       -12.9837   -0.0836   52.8448 C.ar    1  ZINC000054627026   -0.1200
     23 C23       -14.2851    0.3758   52.7929 C.ar    1  ZINC000054627026   -0.1000
     24 C24       -14.5378    1.7202   52.5900 C.ar    1  ZINC000054627026   -0.1100
     25 C25       -13.4888    2.6084   52.4384 C.ar    1  ZINC000054627026   -0.1000
     26 C26       -12.1851    2.1557   52.4955 C.ar    1  ZINC000054627026   -0.1000
     27 N27       -10.1917   -0.9845   52.9292 N.2     1  ZINC000054627026   -0.0500
     28 N28        -8.9046   -1.0137   52.9150 N.2     1  ZINC000054627026   -0.2000
     29 H29        -7.3395    2.5419   52.2178 H       1  ZINC000054627026    0.4200
     30 H30        -5.3957    3.4797   54.0609 H       1  ZINC000054627026    0.1500
     31 H31        -3.0261    4.1179   53.9674 H       1  ZINC000054627026    0.1300
     32 H32        -0.6418    3.6637   52.3732 H       1  ZINC000054627026    0.4300
     33 H33         1.6047    3.2911   51.4695 H       1  ZINC000054627026    0.1600
     34 H34         3.4668    2.6576   49.6303 H       1  ZINC000054627026    0.1600
     35 H35         2.2494    1.3574   47.7085 H       1  ZINC000054627026    0.2100
     36 H36        -4.9221    1.0551   50.5722 H       1  ZINC000054627026    0.1400
     37 H37        -9.4361    2.1564   52.4785 H       1  ZINC000054627026    0.2100
     38 H38       -12.7871   -1.1337   53.0027 H       1  ZINC000054627026    0.1400
     39 H39       -15.1064   -0.3155   52.9107 H       1  ZINC000054627026    0.1400
     40 H40       -15.5562    2.0771   52.5495 H       1  ZINC000054627026    0.1400
     41 H41       -13.6892    3.6576   52.2797 H       1  ZINC000054627026    0.1400
     42 H42       -11.3663    2.8499   52.3769 H       1  ZINC000054627026    0.1400
@<TRIPOS>BOND
     1     1     2    2
     2     2     3   am
     3     2    18    1
     4     3     4    1
     5     3    29    1
     6     4    17   ar
     7     4     5   ar
     8     5     6   ar
     9     5    30    1
    10     6     7   ar
    11     6    31    1
    12     7    16   ar
    13     7     8    1
    14     8     9    1
    15     8    32    1
    16     9    10    1
    17     9    15    2
    18    10    14    1
    19    10    11    2
    20    11    12    1
    21    11    33    1
    22    12    13    2
    23    12    34    1
    24    13    14    1
    25    13    35    1
    26    15    16    1
    27    16    17   ar
    28    17    36    1
    29    18    28    1
    30    18    19    2
    31    19    20    1
    32    19    37    1
    33    20    21    1
    34    20    27    1
    35    21    26   ar
    36    21    22   ar
    37    22    23   ar
    38    22    38    1
    39    23    24   ar
    40    23    39    1
    41    24    25   ar
    42    24    40    1
    43    25    26   ar
    44    25    41    1
    45    26    42    1
    46    27    28    2
@<TRIPOS>SUBSTRUCTURE
     1 ZINC000054627026        1 TEMP              0 ****  ****    0 ROOT


##########                                Name:    ZINC001077846158
##########                DOCK_Rotatable_Bonds:                   7
##########                         Heavy_Atoms:                  24
##########                    Molecular_Weight:             350.442
##########                DOCK_Rotatable_Bonds:                   7
##########                       Formal_Charge:          -0.0600002
##########                     HBond_Acceptors:                   8
##########                        HBond_Donors:                   2
##########                         Heavy_Atoms:                  24
##########                          Grid_Score:          -31.406691
##########                     Grid_vdw_energy:          -31.954832
##########                      Grid_es_energy:            0.548142
##########           Internal_energy_repulsive:            7.690269

@<TRIPOS>MOLECULE
ZINC001077846158
 46 48 1 0 0
SMALL
USER_CHARGES


@<TRIPOS>ATOM
      1 C1          3.4118    3.8494   49.2519 C.3     1  ZINC001077846158   -0.0700
      2 C2          3.3776    2.5853   50.0718 C.2     1  ZINC001077846158    0.0100
      3 C3          2.3594    1.7117   50.1395 C.2     1  ZINC001077846158   -0.0500
      4 C4          1.0434    1.8126   49.4120 C.3     1  ZINC001077846158    0.1300
      5 N5         -0.0577    1.7659   50.3833 N.3     1  ZINC001077846158   -0.5100
      6 C6         -0.0724    2.9859   51.2303 C.3     1  ZINC001077846158    0.0000
      7 C7         -1.5208    3.0186   51.7798 C.3     1  ZINC001077846158    0.1000
      8 H8         -1.6261    2.3444   52.6298 H       1  ZINC001077846158    0.0800
      9 O9         -1.8939    4.3493   52.1429 O.3     1  ZINC001077846158   -0.5600
     10 C10        -2.3573    2.5200   50.5791 C.3     1  ZINC001077846158    0.1400
     11 H11        -2.7674    3.3653   50.0267 H       1  ZINC001077846158    0.1100
     12 N12        -3.4366    1.6433   51.0404 N.am    1  ZINC001077846158   -0.7000
     13 C13        -4.6539    2.1563   51.3074 C.2     1  ZINC001077846158    0.6000
     14 O14        -4.8562    3.3474   51.1665 O.2     1  ZINC001077846158   -0.5300
     15 C15        -5.7393    1.2748   51.7694 C.2     1  ZINC001077846158    0.0100
     16 C16        -5.7571   -0.0578   51.5413 C.2     1  ZINC001077846158   -0.2300
     17 S17        -7.1742   -0.7172   52.2335 S.3     1  ZINC001077846158    0.2300
     18 C18        -7.6611    0.8232   52.7872 C.2     1  ZINC001077846158    0.0300
     19 C19        -8.9256    1.0974   53.5599 C.3     1  ZINC001077846158   -0.0200
     20 C20        -9.4718    2.4730   53.1725 C.3     1  ZINC001077846158   -0.1500
     21 C21        -9.9661    0.0246   53.2324 C.3     1  ZINC001077846158   -0.1500
     22 N22        -6.7955    1.7161   52.4577 N.2     1  ZINC001077846158   -0.4500
     23 C23        -1.3680    1.7351   49.6979 C.3     1  ZINC001077846158    0.0300
     24 O24         2.7361    0.7282   50.9799 O.3     1  ZINC001077846158   -0.2100
     25 C25         3.9720    1.0113   51.4123 C.2     1  ZINC001077846158    0.1800
     26 N26         4.3630    2.1256   50.8629 N.2     1  ZINC001077846158   -0.4900
     27 H27         3.8119    3.6297   48.2621 H       1  ZINC001077846158    0.0800
     28 H28         2.4017    4.2473   49.1553 H       1  ZINC001077846158    0.0700
     29 H29         4.0467    4.5854   49.7453 H       1  ZINC001077846158    0.0700
     30 H30         1.0033    2.7529   48.8622 H       1  ZINC001077846158    0.0600
     31 H31         0.9488    0.9799   48.7152 H       1  ZINC001077846158    0.1100
     32 H32         0.6462    2.8973   52.0450 H       1  ZINC001077846158    0.0900
     33 H33         0.1317    3.8730   50.6307 H       1  ZINC001077846158    0.0600
     34 H34        -1.8888    4.9744   51.4051 H       1  ZINC001077846158    0.3900
     35 H35        -3.2750    0.6936   51.1539 H       1  ZINC001077846158    0.4100
     36 H36        -5.0000   -0.6144   51.0091 H       1  ZINC001077846158    0.1900
     37 H37        -8.7095    1.0800   54.6282 H       1  ZINC001077846158    0.1000
     38 H38        -8.7305    3.2373   53.4058 H       1  ZINC001077846158    0.0600
     39 H39        -9.6879    2.4905   52.1042 H       1  ZINC001077846158    0.0600
     40 H40       -10.3864    2.6713   53.7314 H       1  ZINC001077846158    0.0700
     41 H41        -9.5769   -0.9553   53.5084 H       1  ZINC001077846158    0.0600
     42 H42       -10.8807    0.2230   53.7913 H       1  ZINC001077846158    0.0700
     43 H43       -10.1821    0.0421   52.1642 H       1  ZINC001077846158    0.0600
     44 H44        -1.2864    2.2080   48.7193 H       1  ZINC001077846158    0.0600
     45 H45        -1.7054    0.7044   49.5882 H       1  ZINC001077846158    0.0900
     46 H46         4.5506    0.4121   52.0998 H       1  ZINC001077846158    0.2500
@<TRIPOS>BOND
     1     1     2    1
     2     1    27    1
     3     1    28    1
     4     1    29    1
     5     2    26    1
     6     2     3    2
     7     3     4    1
     8     3    24    1
     9     4     5    1
    10     4    30    1
    11     4    31    1
    12     5    23    1
    13     5     6    1
    14     6     7    1
    15     6    32    1
    16     6    33    1
    17     7     8    1
    18     7     9    1
    19     7    10    1
    20     9    34    1
    21    10    11    1
    22    10    12    1
    23    10    23    1
    24    12    13   am
    25    12    35    1
    26    13    14    2
    27    13    15    1
    28    15    22    1
    29    15    16    2
    30    16    17    1
    31    16    36    1
    32    17    18    1
    33    18    19    1
    34    18    22    2
    35    19    20    1
    36    19    21    1
    37    19    37    1
    38    20    38    1
    39    20    39    1
    40    20    40    1
    41    21    41    1
    42    21    42    1
    43    21    43    1
    44    23    44    1
    45    23    45    1
    46    24    25    1
    47    25    26    2
    48    25    46    1
@<TRIPOS>SUBSTRUCTURE
     1 ZINC001077846158        1 TEMP              0 ****  ****    0 ROOT


##########                                Name:    ZINC001065334255
##########                DOCK_Rotatable_Bonds:                   7
##########                         Heavy_Atoms:                  23
##########                    Molecular_Weight:             346.448
##########                DOCK_Rotatable_Bonds:                   7
##########                       Formal_Charge:        -5.81145e-07
##########                     HBond_Acceptors:                   8
##########                        HBond_Donors:                   1
##########                         Heavy_Atoms:                  23
##########                          Grid_Score:          -31.365847
##########                     Grid_vdw_energy:          -30.910852
##########                      Grid_es_energy:           -0.454994
##########           Internal_energy_repulsive:           24.620577

@<TRIPOS>MOLECULE
ZINC001065334255
 49 50 1 0 0
SMALL
USER_CHARGES


@<TRIPOS>ATOM
      1 C1        -11.9910    3.0185   50.3194 C.3     1  ZINC001065334255   -0.1500
      2 C2        -13.3189    2.6901   49.6341 C.3     1  ZINC001065334255   -0.0800
      3 C3        -13.0480    1.9236   48.3379 C.3     1  ZINC001065334255   -0.1500
      4 C4        -14.1747    1.8296   50.5660 C.3     1  ZINC001065334255   -0.1400
      5 C5        -13.3870    0.6192   50.9965 C.2     1  ZINC001065334255    0.5100
      6 O6        -13.3696   -0.3727   50.2987 O.2     1  ZINC001065334255   -0.5300
      7 N7        -12.7019    0.6388   52.1571 N.am    1  ZINC001065334255   -0.7300
      8 C8        -11.9348   -0.5374   52.5747 C.3     1  ZINC001065334255    0.1300
      9 C9        -10.8892   -0.1222   53.6118 C.3     1  ZINC001065334255    0.0700
     10 H10       -10.2152   -0.9572   53.8036 H       1  ZINC001065334255    0.0700
     11 C11       -10.0873    1.0715   53.0808 C.3     1  ZINC001065334255    0.0800
     12 N12        -9.2225    1.5679   54.1630 N.am    1  ZINC001065334255   -0.6100
     13 C13        -7.9053    1.7697   53.9611 C.2     1  ZINC001065334255    0.5400
     14 O14        -7.2091    2.1799   54.8655 O.2     1  ZINC001065334255   -0.5200
     15 C15        -7.2976    1.4859   52.6116 C.3     1  ZINC001065334255   -0.1100
     16 H16        -7.9897    1.7783   51.8219 H       1  ZINC001065334255    0.1200
     17 C17        -6.9607   -0.0105   52.4896 C.3     1  ZINC001065334255   -0.1000
     18 C18        -6.0451   -0.2129   51.2658 C.3     1  ZINC001065334255   -0.5900
     19 S19        -5.1448    1.3682   51.0780 S.o2    1  ZINC001065334255    2.3900
     20 O20        -3.7731    1.1692   51.3911 O.2     1  ZINC001065334255   -0.9300
     21 O21        -5.5088    1.9738   49.8452 O.2     1  ZINC001065334255   -0.9300
     22 C22        -5.9610    2.2566   52.4586 C.3     1  ZINC001065334255   -0.5900
     23 C23        -9.8384    1.8379   55.4718 C.3     1  ZINC001065334255    0.0600
     24 C24       -10.6524    0.6068   55.8863 C.3     1  ZINC001065334255    0.0500
     25 O25       -11.5437    0.2520   54.8264 O.3     1  ZINC001065334255   -0.3700
     26 H26       -11.3813    3.6314   49.6555 H       1  ZINC001065334255    0.0600
     27 H27       -12.1839    3.5645   51.2429 H       1  ZINC001065334255    0.0500
     28 H28       -11.4616    2.0935   50.5480 H       1  ZINC001065334255    0.0600
     29 H29       -13.8483    3.6150   49.4054 H       1  ZINC001065334255    0.0800
     30 H30       -12.5186    0.9986   48.5665 H       1  ZINC001065334255    0.0500
     31 H31       -13.9940    1.6897   47.8497 H       1  ZINC001065334255    0.0700
     32 H32       -12.4384    2.5366   47.6741 H       1  ZINC001065334255    0.0500
     33 H33       -14.4544    2.4122   51.4437 H       1  ZINC001065334255    0.0900
     34 H34       -15.0745    1.5095   50.0405 H       1  ZINC001065334255    0.0900
     35 H35       -12.7169    1.4317   52.7157 H       1  ZINC001065334255    0.4000
     36 H36       -12.6084   -1.2738   53.0127 H       1  ZINC001065334255    0.0900
     37 H37       -11.4352   -0.9715   51.7087 H       1  ZINC001065334255    0.0800
     38 H38        -9.4743    0.7557   52.2365 H       1  ZINC001065334255    0.1100
     39 H39       -10.7696    1.8606   52.7648 H       1  ZINC001065334255    0.0900
     40 H40        -6.4470   -0.3452   53.3909 H       1  ZINC001065334255    0.1000
     41 H41        -7.8787   -0.5835   52.3593 H       1  ZINC001065334255    0.1000
     42 H42        -5.3447   -1.0280   51.4479 H       1  ZINC001065334255    0.1500
     43 H43        -6.6415   -0.4168   50.3765 H       1  ZINC001065334255    0.1400
     44 H44        -6.1420    3.2986   52.1947 H       1  ZINC001065334255    0.1400
     45 H45        -5.3672    2.1846   53.3697 H       1  ZINC001065334255    0.1500
     46 H46        -9.0606    2.0296   56.2109 H       1  ZINC001065334255    0.1000
     47 H47       -10.4955    2.7043   55.3966 H       1  ZINC001065334255    0.0900
     48 H48        -9.9774   -0.2252   56.0872 H       1  ZINC001065334255    0.0600
     49 H49       -11.2269    0.8355   56.7839 H       1  ZINC001065334255    0.1100
@<TRIPOS>BOND
     1     1     2    1
     2     1    26    1
     3     1    27    1
     4     1    28    1
     5     2     3    1
     6     2     4    1
     7     2    29    1
     8     3    30    1
     9     3    31    1
    10     3    32    1
    11     4     5    1
    12     4    33    1
    13     4    34    1
    14     5     6    2
    15     5     7   am
    16     7     8    1
    17     7    35    1
    18     8     9    1
    19     8    36    1
    20     8    37    1
    21     9    10    1
    22     9    25    1
    23     9    11    1
    24    11    12    1
    25    11    38    1
    26    11    39    1
    27    12    13   am
    28    12    23    1
    29    13    14    2
    30    13    15    1
    31    15    16    1
    32    15    22    1
    33    15    17    1
    34    17    18    1
    35    17    40    1
    36    17    41    1
    37    18    19    1
    38    18    42    1
    39    18    43    1
    40    19    20    2
    41    19    21    2
    42    19    22    1
    43    22    44    1
    44    22    45    1
    45    23    24    1
    46    23    46    1
    47    23    47    1
    48    24    25    1
    49    24    48    1
    50    24    49    1
@<TRIPOS>SUBSTRUCTURE
     1 ZINC001065334255        1 TEMP              0 ****  ****    0 ROOT


##########                                Name:    ZINC000745364361
##########                DOCK_Rotatable_Bonds:                   8
##########                         Heavy_Atoms:                  29
##########                    Molecular_Weight:             398.434
##########                DOCK_Rotatable_Bonds:                   8
##########                       Formal_Charge:          0.00999923
##########                     HBond_Acceptors:                   7
##########                        HBond_Donors:                   1
##########                         Heavy_Atoms:                  29
##########                          Grid_Score:          -31.359154
##########                     Grid_vdw_energy:          -31.031656
##########                      Grid_es_energy:           -0.327497
##########           Internal_energy_repulsive:           11.577980

@<TRIPOS>MOLECULE
ZINC000745364361
 52 54 1 0 0
SMALL
USER_CHARGES


@<TRIPOS>ATOM
      1 C1        -10.1580    3.5227   53.0756 C.3     1  ZINC000745364361   -0.1700
      2 C2         -9.5169    2.1400   52.9414 C.3     1  ZINC000745364361    0.0700
      3 H3         -9.9381    1.6266   52.0771 H       1  ZINC000745364361    0.1100
      4 O4         -9.7813    1.3654   54.1407 O.3     1  ZINC000745364361   -0.3200
      5 C5        -10.8047    0.4983   54.0927 C.2     1  ZINC000745364361    0.4700
      6 O6        -10.8397   -0.3480   53.2311 O.2     1  ZINC000745364361   -0.4900
      7 C7        -11.9101    0.5802   55.1138 C.3     1  ZINC000745364361   -0.0400
      8 H8        -11.9396    1.5839   55.5377 H       1  ZINC000745364361    0.1200
      9 C9        -13.2493    0.2710   54.4414 C.3     1  ZINC000745364361   -0.1400
     10 C10       -11.6559   -0.4213   56.2108 C.ar    1  ZINC000745364361   -0.0500
     11 C11       -12.3626   -0.3420   57.3961 C.ar    1  ZINC000745364361   -0.1000
     12 C12       -12.1303   -1.2601   58.4034 C.ar    1  ZINC000745364361   -0.0900
     13 C13       -11.1913   -2.2582   58.2263 C.ar    1  ZINC000745364361   -0.1500
     14 C14       -10.4830   -2.3389   57.0390 C.ar    1  ZINC000745364361    0.1000
     15 F15        -9.5647   -3.3143   56.8648 F       1  ZINC000745364361   -0.1400
     16 C16       -10.7201   -1.4222   56.0292 C.ar    1  ZINC000745364361   -0.1400
     17 C17        -8.0286    2.2920   52.7594 C.2     1  ZINC000745364361    0.5200
     18 O18        -7.3485    2.7286   53.6640 O.2     1  ZINC000745364361   -0.5000
     19 N19        -7.4534    1.9428   51.5917 N.am    1  ZINC000745364361   -0.6700
     20 C20        -6.0700    2.0841   51.4227 C.ar    1  ZINC000745364361    0.1200
     21 C21        -5.2326    0.9923   51.6103 C.ar    1  ZINC000745364361   -0.1100
     22 C22        -3.8693    1.1315   51.4437 C.ar    1  ZINC000745364361   -0.1400
     23 C23        -3.3354    2.3632   51.0882 C.ar    1  ZINC000745364361    0.1500
     24 N24        -1.9520    2.5045   50.9195 N.am    1  ZINC000745364361   -0.5600
     25 C25        -1.0693    3.1989   51.8644 C.3     1  ZINC000745364361    0.0900
     26 C26         0.3606    2.7339   51.5104 C.3     1  ZINC000745364361   -0.1300
     27 C27         0.2072    2.3484   50.0208 C.3     1  ZINC000745364361   -0.1500
     28 C28        -1.2616    2.0166   49.8745 C.2     1  ZINC000745364361    0.5200
     29 O29        -1.7466    1.4056   48.9458 O.2     1  ZINC000745364361   -0.5100
     30 C30        -4.1730    3.4546   50.8992 C.ar    1  ZINC000745364361   -0.1400
     31 C31        -5.5366    3.3144   51.0620 C.ar    1  ZINC000745364361   -0.0900
     32 H32       -11.2345    3.4128   53.2072 H       1  ZINC000745364361    0.0800
     33 H33        -9.7369    4.0361   53.9400 H       1  ZINC000745364361    0.0800
     34 H34        -9.9596    4.1042   52.1754 H       1  ZINC000745364361    0.0800
     35 H35       -13.2199   -0.7327   54.0175 H       1  ZINC000745364361    0.0700
     36 H36       -14.0488    0.3303   55.1799 H       1  ZINC000745364361    0.0800
     37 H37       -13.4332    0.9954   53.6479 H       1  ZINC000745364361    0.0800
     38 H38       -13.0963    0.4380   57.5356 H       1  ZINC000745364361    0.1300
     39 H39       -12.6828   -1.1970   59.3293 H       1  ZINC000745364361    0.1400
     40 H40       -11.0096   -2.9748   59.0135 H       1  ZINC000745364361    0.1400
     41 H41       -10.1687   -1.4844   55.1027 H       1  ZINC000745364361    0.1400
     42 H42        -7.9972    1.5938   50.8684 H       1  ZINC000745364361    0.4100
     43 H43        -5.6477    0.0344   51.8868 H       1  ZINC000745364361    0.1300
     44 H44        -3.2179    0.2826   51.5902 H       1  ZINC000745364361    0.1600
     45 H45        -1.1568    4.2782   51.7389 H       1  ZINC000745364361    0.0800
     46 H46        -1.3153    2.9163   52.8879 H       1  ZINC000745364361    0.0900
     47 H47         1.0764    3.5470   51.6311 H       1  ZINC000745364361    0.1000
     48 H48         0.6493    1.8700   52.1092 H       1  ZINC000745364361    0.0900
     49 H49         0.4785    3.1871   49.3798 H       1  ZINC000745364361    0.1100
     50 H50         0.8175    1.4759   49.7877 H       1  ZINC000745364361    0.1100
     51 H51        -3.7579    4.4124   50.6224 H       1  ZINC000745364361    0.1300
     52 H52        -6.1880    4.1633   50.9151 H       1  ZINC000745364361    0.1400
@<TRIPOS>BOND
     1     1     2    1
     2     1    32    1
     3     1    33    1
     4     1    34    1
     5     2     3    1
     6     2     4    1
     7     2    17    1
     8     4     5    1
     9     5     6    2
    10     5     7    1
    11     7     8    1
    12     7     9    1
    13     7    10    1
    14     9    35    1
    15     9    36    1
    16     9    37    1
    17    10    16   ar
    18    10    11   ar
    19    11    12   ar
    20    11    38    1
    21    12    13   ar
    22    12    39    1
    23    13    14   ar
    24    13    40    1
    25    14    15    1
    26    14    16   ar
    27    16    41    1
    28    17    18    2
    29    17    19   am
    30    19    20    1
    31    19    42    1
    32    20    31   ar
    33    20    21   ar
    34    21    22   ar
    35    21    43    1
    36    22    23   ar
    37    22    44    1
    38    23    24    1
    39    23    30   ar
    40    24    28   am
    41    24    25    1
    42    25    26    1
    43    25    45    1
    44    25    46    1
    45    26    27    1
    46    26    47    1
    47    26    48    1
    48    27    28    1
    49    27    49    1
    50    27    50    1
    51    28    29    2
    52    30    31   ar
    53    30    51    1
    54    31    52    1
@<TRIPOS>SUBSTRUCTURE
     1 ZINC000745364361        1 TEMP              0 ****  ****    0 ROOT


##########                                Name:    ZINC001513543414
##########                DOCK_Rotatable_Bonds:                   6
##########                         Heavy_Atoms:                  26
##########                    Molecular_Weight:             364.488
##########                DOCK_Rotatable_Bonds:                   6
##########                       Formal_Charge:         -0.00999974
##########                     HBond_Acceptors:                   7
##########                        HBond_Donors:                   0
##########                         Heavy_Atoms:                  26
##########                          Grid_Score:          -31.326900
##########                     Grid_vdw_energy:          -31.622702
##########                      Grid_es_energy:            0.295800
##########           Internal_energy_repulsive:           14.609761

@<TRIPOS>MOLECULE
ZINC001513543414
 58 61 1 0 0
SMALL
USER_CHARGES


@<TRIPOS>ATOM
      1 C1         -1.0201    3.2181   58.1991 C.3     1  ZINC001513543414   -0.1500
      2 C2         -1.4795    2.7171   56.8284 C.3     1  ZINC001513543414   -0.1200
      3 C3         -1.7390    3.9123   55.9092 C.3     1  ZINC001513543414    0.1100
      4 C4         -2.9311    4.7178   56.4296 C.3     1  ZINC001513543414   -0.1500
      5 C5         -0.4842    4.8095   55.8497 C.3     1  ZINC001513543414   -0.1500
      6 C6         -0.4487    5.2281   54.3546 C.3     1  ZINC001513543414   -0.1500
      7 C7         -1.0036    3.9494   53.6780 C.3     1  ZINC001513543414    0.0700
      8 H8         -0.2099    3.2129   53.5525 H       1  ZINC001513543414    0.0800
      9 C9         -1.6270    4.2931   52.3235 C.3     1  ZINC001513543414    0.1100
     10 N10        -1.5641    3.1218   51.4458 N.pl3   1  ZINC001513543414   -0.4600
     11 C11        -2.5996    2.3060   51.0826 C.2     1  ZINC001513543414    0.1900
     12 C12        -4.0373    2.4419   51.5134 C.3     1  ZINC001513543414    0.1800
     13 H13        -4.1004    2.9988   52.4482 H       1  ZINC001513543414    0.1000
     14 C14        -4.8649    3.1478   50.4099 C.3     1  ZINC001513543414   -0.1500
     15 C15        -6.2901    2.6177   50.7258 C.3     1  ZINC001513543414   -0.1500
     16 C16        -6.0033    1.1869   51.2297 C.3     1  ZINC001513543414    0.0500
     17 O17        -4.6374    1.1456   51.6638 O.3     1  ZINC001513543414   -0.3500
     18 N18        -2.1130    1.3897   50.2943 N.2     1  ZINC001513543414   -0.2600
     19 N19        -0.8503    1.5698   50.1361 N.2     1  ZINC001513543414   -0.3100
     20 C20        -0.4613    2.6222   50.8164 C.2     1  ZINC001513543414    0.3400
     21 N21         0.8276    3.1261   50.8890 N.3     1  ZINC001513543414   -0.4500
     22 C22         1.3255    3.5026   49.5488 C.3     1  ZINC001513543414    0.0500
     23 C23         2.8445    3.2022   49.5923 C.3     1  ZINC001513543414   -0.1500
     24 C24         2.8837    1.9089   50.4481 C.3     1  ZINC001513543414    0.0700
     25 H25         2.6786    1.0330   49.8326 H       1  ZINC001513543414    0.0800
     26 O26         4.1450    1.7771   51.1070 O.3     1  ZINC001513543414   -0.3800
     27 C27         5.2279    1.4583   50.2308 C.3     1  ZINC001513543414    0.0300
     28 C28         1.7505    2.1345   51.4711 C.3     1  ZINC001513543414    0.0600
     29 O29        -2.0064    3.4532   54.5789 O.3     1  ZINC001513543414   -0.3600
     30 H30        -0.8352    2.3665   58.8538 H       1  ZINC001513543414    0.0500
     31 H31        -0.1024    3.7954   58.0860 H       1  ZINC001513543414    0.0500
     32 H32        -1.7952    3.8492   58.6338 H       1  ZINC001513543414    0.0600
     33 H33        -0.7044    2.0860   56.3936 H       1  ZINC001513543414    0.0700
     34 H34        -2.3971    2.1397   56.9415 H       1  ZINC001513543414    0.0600
     35 H35        -2.7103    5.0879   57.4308 H       1  ZINC001513543414    0.0700
     36 H36        -3.1187    5.5604   55.7640 H       1  ZINC001513543414    0.0600
     37 H37        -3.8136    4.0792   56.4648 H       1  ZINC001513543414    0.0700
     38 H38        -0.5995    5.6812   56.4939 H       1  ZINC001513543414    0.0900
     39 H39         0.4095    4.2447   56.1157 H       1  ZINC001513543414    0.0800
     40 H40        -1.0988    6.0835   54.1707 H       1  ZINC001513543414    0.0800
     41 H41         0.5706    5.4345   54.0284 H       1  ZINC001513543414    0.0900
     42 H42        -2.6674    4.5850   52.4660 H       1  ZINC001513543414    0.1000
     43 H43        -1.0771    5.1174   51.8693 H       1  ZINC001513543414    0.1100
     44 H44        -4.8165    4.2317   50.5154 H       1  ZINC001513543414    0.0900
     45 H45        -4.5413    2.8368   49.4167 H       1  ZINC001513543414    0.0900
     46 H46        -6.7627    3.2160   51.5049 H       1  ZINC001513543414    0.0800
     47 H47        -6.9043    2.5962   49.8256 H       1  ZINC001513543414    0.0900
     48 H48        -6.6625    0.9499   52.0646 H       1  ZINC001513543414    0.0700
     49 H49        -6.1572    0.4724   50.4210 H       1  ZINC001513543414    0.0700
     50 H50         0.8412    2.8995   48.7808 H       1  ZINC001513543414    0.0600
     51 H51         1.1535    4.5631   49.3643 H       1  ZINC001513543414    0.0900
     52 H52         3.2353    3.0199   48.5912 H       1  ZINC001513543414    0.0800
     53 H53         3.3886    4.0104   50.0809 H       1  ZINC001513543414    0.0900
     54 H54         6.1494    1.3757   50.8072 H       1  ZINC001513543414    0.0900
     55 H55         5.0249    0.5107   49.7322 H       1  ZINC001513543414    0.0400
     56 H56         5.3354    2.2457   49.4847 H       1  ZINC001513543414    0.0400
     57 H57         2.1642    2.5161   52.4046 H       1  ZINC001513543414    0.1000
     58 H58         1.2227    1.1981   51.6522 H       1  ZINC001513543414    0.0900
@<TRIPOS>BOND
     1     1     2    1
     2     1    30    1
     3     1    31    1
     4     1    32    1
     5     2     3    1
     6     2    33    1
     7     2    34    1
     8     3    29    1
     9     3     4    1
    10     3     5    1
    11     4    35    1
    12     4    36    1
    13     4    37    1
    14     5     6    1
    15     5    38    1
    16     5    39    1
    17     6     7    1
    18     6    40    1
    19     6    41    1
    20     7     8    1
    21     7     9    1
    22     7    29    1
    23     9    10    1
    24     9    42    1
    25     9    43    1
    26    10    20    1
    27    10    11    1
    28    11    12    1
    29    11    18    2
    30    12    13    1
    31    12    17    1
    32    12    14    1
    33    14    15    1
    34    14    44    1
    35    14    45    1
    36    15    16    1
    37    15    46    1
    38    15    47    1
    39    16    17    1
    40    16    48    1
    41    16    49    1
    42    18    19    1
    43    19    20    2
    44    20    21    1
    45    21    28    1
    46    21    22    1
    47    22    23    1
    48    22    50    1
    49    22    51    1
    50    23    24    1
    51    23    52    1
    52    23    53    1
    53    24    25    1
    54    24    26    1
    55    24    28    1
    56    26    27    1
    57    27    54    1
    58    27    55    1
    59    27    56    1
    60    28    57    1
    61    28    58    1
@<TRIPOS>SUBSTRUCTURE
     1 ZINC001513543414        1 TEMP              0 ****  ****    0 ROOT


##########                                Name:    ZINC000774689801
##########                DOCK_Rotatable_Bonds:                   4
##########                         Heavy_Atoms:                  24
##########                    Molecular_Weight:             347.395
##########                DOCK_Rotatable_Bonds:                   4
##########                       Formal_Charge:         -0.00999961
##########                     HBond_Acceptors:                   8
##########                        HBond_Donors:                   1
##########                         Heavy_Atoms:                  24
##########                          Grid_Score:          -31.306608
##########                     Grid_vdw_energy:          -31.946510
##########                      Grid_es_energy:            0.639902
##########           Internal_energy_repulsive:            3.965251

@<TRIPOS>MOLECULE
ZINC000774689801
 41 44 1 0 0
SMALL
USER_CHARGES


@<TRIPOS>ATOM
      1 C1         -9.1509    2.5645   53.1938 C.3     1  ZINC000774689801   -0.1200
      2 C2         -8.2654    1.4340   52.7363 C.2     1  ZINC000774689801    0.0600
      3 C3         -8.6765    0.1558   52.7388 C.2     1  ZINC000774689801   -0.2800
      4 C4        -10.0004   -0.2944   53.1734 C.2     1  ZINC000774689801    0.5500
      5 O5        -10.8873   -0.4531   52.3563 O.2     1  ZINC000774689801   -0.4900
      6 O6        -10.2364   -0.5332   54.4799 O.3     1  ZINC000774689801   -0.3400
      7 C7        -11.6243   -0.6665   54.8854 C.3     1  ZINC000774689801    0.0900
      8 C8        -11.6912   -0.9622   56.3851 C.3     1  ZINC000774689801   -0.1300
      9 H9        -11.1574   -0.1966   56.9482 H       1  ZINC000774689801    0.1200
     10 C10       -13.1620   -1.0519   56.8539 C.3     1  ZINC000774689801   -0.1300
     11 C11       -13.0881   -2.1776   57.9092 C.3     1  ZINC000774689801    0.1000
     12 N12       -11.9278   -2.9931   57.5314 N.am    1  ZINC000774689801   -0.7400
     13 C13       -11.1203   -2.3316   56.6808 C.2     1  ZINC000774689801    0.5200
     14 O14       -10.0894   -2.7716   56.2177 O.2     1  ZINC000774689801   -0.5100
     15 S15        -7.4048   -0.9001   52.1477 S.3     1  ZINC000774689801    0.3000
     16 C16        -6.3183    0.4629   51.9068 C.2     1  ZINC000774689801    0.1000
     17 C17        -6.9669    1.6457   52.2767 C.2     1  ZINC000774689801   -0.2500
     18 C18        -6.1997    2.8983   52.1391 C.2     1  ZINC000774689801    0.5700
     19 O19        -6.6966    3.9684   52.4422 O.2     1  ZINC000774689801   -0.5000
     20 N20        -4.9318    2.8334   51.6692 N.am    1  ZINC000774689801   -0.5500
     21 C21        -3.9758    3.9304   51.4395 C.3     1  ZINC000774689801    0.0900
     22 C22        -2.5910    3.2588   51.3357 C.3     1  ZINC000774689801   -0.1300
     23 C23        -2.9628    1.8421   50.8474 C.3     1  ZINC000774689801   -0.0800
     24 C24        -4.3863    1.6357   51.3379 C.2     1  ZINC000774689801    0.4200
     25 N25        -5.0556    0.5192   51.4495 N.2     1  ZINC000774689801   -0.5100
     26 H26        -9.7209    2.9453   52.3464 H       1  ZINC000774689801    0.0800
     27 H27        -9.8367    2.2018   53.9595 H       1  ZINC000774689801    0.1000
     28 H28        -8.5354    3.3639   53.6064 H       1  ZINC000774689801    0.0800
     29 H29       -12.1553    0.2615   54.6740 H       1  ZINC000774689801    0.0900
     30 H30       -12.0874   -1.4841   54.3329 H       1  ZINC000774689801    0.0800
     31 H31       -13.4853   -0.1142   57.3059 H       1  ZINC000774689801    0.1000
     32 H32       -13.8177   -1.3324   56.0297 H       1  ZINC000774689801    0.0900
     33 H33       -12.9438   -1.7540   58.9032 H       1  ZINC000774689801    0.0800
     34 H34       -13.9966   -2.7793   57.8832 H       1  ZINC000774689801    0.0800
     35 H35       -11.7627   -3.8927   57.8543 H       1  ZINC000774689801    0.4100
     36 H36        -4.2137    4.4490   50.5108 H       1  ZINC000774689801    0.1000
     37 H37        -3.9944    4.6278   52.2769 H       1  ZINC000774689801    0.1000
     38 H38        -1.9633    3.7705   50.6061 H       1  ZINC000774689801    0.1100
     39 H39        -2.1025    3.2200   52.3093 H       1  ZINC000774689801    0.0900
     40 H40        -2.9238    1.7917   49.7592 H       1  ZINC000774689801    0.1200
     41 H41        -2.2968    1.1002   51.2880 H       1  ZINC000774689801    0.1200
@<TRIPOS>BOND
     1     1     2    1
     2     1    26    1
     3     1    27    1
     4     1    28    1
     5     2    17    1
     6     2     3    2
     7     3     4    1
     8     3    15    1
     9     4     5    2
    10     4     6    1
    11     6     7    1
    12     7     8    1
    13     7    29    1
    14     7    30    1
    15     8     9    1
    16     8    13    1
    17     8    10    1
    18    10    11    1
    19    10    31    1
    20    10    32    1
    21    11    12    1
    22    11    33    1
    23    11    34    1
    24    12    13   am
    25    12    35    1
    26    13    14    2
    27    15    16    1
    28    16    25    1
    29    16    17    2
    30    17    18    1
    31    18    19    2
    32    18    20   am
    33    20    24    1
    34    20    21    1
    35    21    22    1
    36    21    36    1
    37    21    37    1
    38    22    23    1
    39    22    38    1
    40    22    39    1
    41    23    24    1
    42    23    40    1
    43    23    41    1
    44    24    25    2
@<TRIPOS>SUBSTRUCTURE
     1 ZINC000774689801        1 TEMP              0 ****  ****    0 ROOT


##########                                Name:    ZINC000543625960
##########                DOCK_Rotatable_Bonds:                   8
##########                         Heavy_Atoms:                  29
##########                    Molecular_Weight:             416.544
##########                DOCK_Rotatable_Bonds:                   8
##########                       Formal_Charge:           -0.010001
##########                     HBond_Acceptors:                   8
##########                        HBond_Donors:                   2
##########                         Heavy_Atoms:                  29
##########                          Grid_Score:          -31.282179
##########                     Grid_vdw_energy:          -30.116257
##########                      Grid_es_energy:           -1.165922
##########           Internal_energy_repulsive:           14.886522

@<TRIPOS>MOLECULE
ZINC000543625960
 57 59 1 0 0
SMALL
USER_CHARGES


@<TRIPOS>ATOM
      1 C1        -11.2367    0.2473   59.8614 C.3     1  ZINC000543625960   -0.1500
      2 C2         -9.7969   -0.1236   60.2221 C.3     1  ZINC000543625960   -0.1300
      3 C3         -8.8356    0.8761   59.5759 C.3     1  ZINC000543625960    0.1500
      4 H4         -8.9328    0.8247   58.4915 H       1  ZINC000543625960    0.0800
      5 C5         -7.3990    0.5340   59.9760 C.3     1  ZINC000543625960   -0.1700
      6 N6         -9.1601    2.2301   60.0316 N.am    1  ZINC000543625960   -1.1100
      7 S7         -9.3641    3.4483   58.9287 S.o2    1  ZINC000543625960    2.7000
      8 O8        -10.3330    2.9879   57.9968 O.2     1  ZINC000543625960   -0.9600
      9 O9         -9.5141    4.6466   59.6776 O.2     1  ZINC000543625960   -0.9500
     10 C10        -7.8517    3.6042   58.0381 C.ar    1  ZINC000543625960   -0.6600
     11 C11        -6.7817    4.2710   58.6055 C.ar    1  ZINC000543625960   -0.0400
     12 C12        -5.5930    4.3955   57.9097 C.ar    1  ZINC000543625960   -0.1200
     13 C13        -5.4713    3.8538   56.6453 C.ar    1  ZINC000543625960   -0.0600
     14 C14        -6.5442    3.1829   56.0727 C.ar    1  ZINC000543625960    0.1500
     15 N15        -6.4241    2.6328   54.7915 N.am    1  ZINC000543625960   -0.6800
     16 C16        -6.1112    3.4229   53.7455 C.2     1  ZINC000543625960    0.7200
     17 O17        -5.9332    4.6137   53.9149 O.2     1  ZINC000543625960   -0.5600
     18 N18        -5.9956    2.8932   52.5116 N.am    1  ZINC000543625960   -0.6300
     19 C19        -5.6600    3.6386   51.2846 C.3     1  ZINC000543625960    0.0900
     20 C20        -5.0527    2.5796   50.3310 C.3     1  ZINC000543625960   -0.1000
     21 H21        -5.1683    2.8797   49.2895 H       1  ZINC000543625960    0.1000
     22 C22        -3.5819    2.3209   50.6642 C.3     1  ZINC000543625960   -0.1500
     23 C23        -5.9233    1.3359   50.6514 C.3     1  ZINC000543625960   -0.1200
     24 C24        -6.1770    1.4755   52.1672 C.3     1  ZINC000543625960    0.2000
     25 H25        -5.4665    0.8608   52.7200 H       1  ZINC000543625960    0.0900
     26 C26        -7.5852    1.0489   52.4926 C.ar    1  ZINC000543625960   -0.1400
     27 C27        -7.8629   -0.2715   52.8107 C.ar    1  ZINC000543625960   -0.0600
     28 C28        -9.1733   -0.6182   53.1036 C.ar    1  ZINC000543625960   -0.1700
     29 C29       -10.1517    0.3569   53.0691 C.ar    1  ZINC000543625960    0.1000
     30 N30        -9.8508    1.6038   52.7622 N.ar    1  ZINC000543625960   -0.4800
     31 C31        -8.6154    1.9705   52.4833 C.ar    1  ZINC000543625960    0.1200
     32 C32        -7.7345    3.0551   56.7759 C.ar    1  ZINC000543625960   -0.0500
     33 H33       -11.9215   -0.4650   60.3217 H       1  ZINC000543625960    0.0600
     34 H34       -11.4560    1.2504   60.2269 H       1  ZINC000543625960    0.0600
     35 H35       -11.3584    0.2204   58.7785 H       1  ZINC000543625960    0.0500
     36 H36        -9.6752   -0.0968   61.3050 H       1  ZINC000543625960    0.0700
     37 H37        -9.5775   -1.1268   59.8565 H       1  ZINC000543625960    0.0800
     38 H38        -7.1576   -0.4734   59.6369 H       1  ZINC000543625960    0.0700
     39 H39        -6.7142    1.2461   59.5157 H       1  ZINC000543625960    0.0700
     40 H40        -7.3018    0.5853   61.0604 H       1  ZINC000543625960    0.0600
     41 H41        -9.2553    2.4130   60.9795 H       1  ZINC000543625960    0.4200
     42 H42        -6.8744    4.6959   59.5941 H       1  ZINC000543625960    0.1400
     43 H43        -4.7591    4.9172   58.3555 H       1  ZINC000543625960    0.1400
     44 H44        -4.5430    3.9519   56.1022 H       1  ZINC000543625960    0.1400
     45 H45        -6.5661    1.6829   54.6563 H       1  ZINC000543625960    0.4100
     46 H46        -6.5589    4.0724   50.8465 H       1  ZINC000543625960    0.0700
     47 H47        -4.9289    4.4172   51.5018 H       1  ZINC000543625960    0.0800
     48 H48        -3.4974    1.9815   51.6965 H       1  ZINC000543625960    0.0600
     49 H49        -3.1874    1.5550   49.9964 H       1  ZINC000543625960    0.0600
     50 H50        -3.0131    3.2420   50.5367 H       1  ZINC000543625960    0.0600
     51 H51        -6.8603    1.3675   50.0955 H       1  ZINC000543625960    0.0800
     52 H52        -5.3772    0.4172   50.4371 H       1  ZINC000543625960    0.0900
     53 H53        -7.0776   -1.0126   52.8294 H       1  ZINC000543625960    0.1300
     54 H54        -9.4260   -1.6377   53.3552 H       1  ZINC000543625960    0.1400
     55 H55       -11.1746    0.0949   53.2957 H       1  ZINC000543625960    0.1600
     56 H56        -8.4074    3.0012   52.2364 H       1  ZINC000543625960    0.1400
     57 H57        -8.5707    2.5341   56.3334 H       1  ZINC000543625960    0.1400
@<TRIPOS>BOND
     1     1     2    1
     2     1    33    1
     3     1    34    1
     4     1    35    1
     5     2     3    1
     6     2    36    1
     7     2    37    1
     8     3     4    1
     9     3     5    1
    10     3     6    1
    11     5    38    1
    12     5    39    1
    13     5    40    1
    14     6     7   am
    15     6    41    1
    16     7     8    2
    17     7     9    2
    18     7    10    1
    19    10    32   ar
    20    10    11   ar
    21    11    12   ar
    22    11    42    1
    23    12    13   ar
    24    12    43    1
    25    13    14   ar
    26    13    44    1
    27    14    15    1
    28    14    32   ar
    29    15    16   am
    30    15    45    1
    31    16    17    2
    32    16    18   am
    33    18    24    1
    34    18    19    1
    35    19    20    1
    36    19    46    1
    37    19    47    1
    38    20    21    1
    39    20    22    1
    40    20    23    1
    41    22    48    1
    42    22    49    1
    43    22    50    1
    44    23    24    1
    45    23    51    1
    46    23    52    1
    47    24    25    1
    48    24    26    1
    49    26    31   ar
    50    26    27   ar
    51    27    28   ar
    52    27    53    1
    53    28    29   ar
    54    28    54    1
    55    29    30   ar
    56    29    55    1
    57    30    31   ar
    58    31    56    1
    59    32    57    1
@<TRIPOS>SUBSTRUCTURE
     1 ZINC000543625960        1 TEMP              0 ****  ****    0 ROOT


##########                                Name:    ZINC001217683559
##########                DOCK_Rotatable_Bonds:                   3
##########                         Heavy_Atoms:                  25
##########                    Molecular_Weight:             397.234
##########                DOCK_Rotatable_Bonds:                   3
##########                       Formal_Charge:          0.00999987
##########                     HBond_Acceptors:                   7
##########                        HBond_Donors:                   0
##########                         Heavy_Atoms:                  25
##########                          Grid_Score:          -31.262121
##########                     Grid_vdw_energy:          -31.051392
##########                      Grid_es_energy:           -0.210729
##########           Internal_energy_repulsive:           29.692659

@<TRIPOS>MOLECULE
ZINC001217683559
 38 42 1 0 0
SMALL
USER_CHARGES


@<TRIPOS>ATOM
      1 Br1        -7.7495    2.3759   54.6537 Br      1  ZINC001217683559    0.0100
      2 C2         -8.9245    0.9869   54.1381 C.ar    1  ZINC001217683559   -0.1200
      3 C3        -10.1604    0.8485   54.7494 C.ar    1  ZINC001217683559   -0.0500
      4 C4        -10.9895   -0.1848   54.3391 C.ar    1  ZINC001217683559   -0.1500
      5 C5        -10.5627   -1.0408   53.3397 C.ar    1  ZINC001217683559    0.1200
      6 N6         -9.3827   -0.8870   52.7755 N.ar    1  ZINC001217683559   -0.4400
      7 C7         -8.5624    0.0913   53.1338 C.ar    1  ZINC001217683559    0.2200
      8 C8         -7.2414    0.2253   52.4692 C.2     1  ZINC001217683559    0.2100
      9 N9         -6.6887   -0.6432   51.6622 N.2     1  ZINC001217683559   -0.3300
     10 O10        -5.6083   -0.2411   51.2856 O.3     1  ZINC001217683559    0.1000
     11 C11        -5.3528    0.9595   51.8288 C.2     1  ZINC001217683559    0.2300
     12 C12        -4.1429    1.7810   51.6192 C.2     1  ZINC001217683559   -0.0600
     13 C13        -3.0332    1.2301   51.0431 C.2     1  ZINC001217683559    0.1800
     14 N14        -1.9185    1.9770   50.8472 N.pl3   1  ZINC001217683559   -0.2900
     15 N15        -0.6610    1.6932   50.2951 N.2     1  ZINC001217683559   -0.3300
     16 C16         0.0452    2.7972   50.3570 C.2     1  ZINC001217683559    0.2800
     17 C17         1.4639    2.9485   49.8720 C.3     1  ZINC001217683559   -0.0300
     18 C18         2.0331    4.3641   50.0646 C.3     1  ZINC001217683559   -0.1200
     19 C19         3.3552    3.6922   50.4714 C.3     1  ZINC001217683559   -0.1400
     20 C20         2.5161    2.4724   50.8875 C.3     1  ZINC001217683559   -0.1200
     21 N21        -0.6796    3.7596   50.9102 N.2     1  ZINC001217683559   -0.5300
     22 C22        -1.8827    3.2916   51.2208 C.2     1  ZINC001217683559    0.2900
     23 C23        -3.0131    3.8844   51.8164 C.2     1  ZINC001217683559   -0.1000
     24 C24        -4.1337    3.1410   52.0094 C.2     1  ZINC001217683559   -0.0200
     25 N25        -6.3924    1.2679   52.5819 N.2     1  ZINC001217683559   -0.4300
     26 H26       -10.4707    1.5297   55.5279 H       1  ZINC001217683559    0.1600
     27 H27       -11.9588   -0.3202   54.7957 H       1  ZINC001217683559    0.1500
     28 H28       -11.2060   -1.8465   53.0179 H       1  ZINC001217683559    0.1800
     29 H29        -3.0439    0.1929   50.7422 H       1  ZINC001217683559    0.1900
     30 H30         1.6133    2.5491   48.8690 H       1  ZINC001217683559    0.1200
     31 H31         2.1010    4.9369   49.1396 H       1  ZINC001217683559    0.0700
     32 H32         1.5584    4.9193   50.8735 H       1  ZINC001217683559    0.1000
     33 H33         4.0224    3.4972   49.6318 H       1  ZINC001217683559    0.0800
     34 H34         3.8557    4.1831   51.3060 H       1  ZINC001217683559    0.0800
     35 H35         2.1734    2.5105   51.9216 H       1  ZINC001217683559    0.0900
     36 H36         2.9739    1.5181   50.6272 H       1  ZINC001217683559    0.0700
     37 H37        -2.9906    4.9224   52.1138 H       1  ZINC001217683559    0.1700
     38 H38        -5.0077    3.5823   52.4650 H       1  ZINC001217683559    0.1700
@<TRIPOS>BOND
     1     1     2    1
     2     2     7   ar
     3     2     3   ar
     4     3     4   ar
     5     3    26    1
     6     4     5   ar
     7     4    27    1
     8     5     6   ar
     9     5    28    1
    10     6     7   ar
    11     7     8    1
    12     8    25    1
    13     8     9    2
    14     9    10    1
    15    10    11    1
    16    11    12    1
    17    11    25    2
    18    12    24    1
    19    12    13    2
    20    13    14    1
    21    13    29    1
    22    14    22    1
    23    14    15    1
    24    15    16    2
    25    16    17    1
    26    16    21    1
    27    17    20    1
    28    17    18    1
    29    17    30    1
    30    18    19    1
    31    18    31    1
    32    18    32    1
    33    19    20    1
    34    19    33    1
    35    19    34    1
    36    20    35    1
    37    20    36    1
    38    21    22    2
    39    22    23    1
    40    23    24    2
    41    23    37    1
    42    24    38    1
@<TRIPOS>SUBSTRUCTURE
     1 ZINC001217683559        1 TEMP              0 ****  ****    0 ROOT


##########                                Name:    ZINC000481838178
##########                DOCK_Rotatable_Bonds:                   6
##########                         Heavy_Atoms:                  29
##########                    Molecular_Weight:             408.524
##########                DOCK_Rotatable_Bonds:                   6
##########                       Formal_Charge:         -0.00999962
##########                     HBond_Acceptors:                   7
##########                        HBond_Donors:                   0
##########                         Heavy_Atoms:                  29
##########                          Grid_Score:          -31.254559
##########                     Grid_vdw_energy:          -30.725094
##########                      Grid_es_energy:           -0.529466
##########           Internal_energy_repulsive:            5.691177

@<TRIPOS>MOLECULE
ZINC000481838178
 53 57 1 0 0
SMALL
USER_CHARGES


@<TRIPOS>ATOM
      1 O1         -9.0391   -1.3626   52.8158 O.2     1  ZINC000481838178   -0.5200
      2 C2         -9.2461   -0.1677   52.7932 C.2     1  ZINC000481838178    0.5500
      3 C3        -10.6437    0.3588   52.9944 C.3     1  ZINC000481838178   -0.1500
      4 S4        -11.6458   -0.8943   53.8320 S.3     1  ZINC000481838178    0.1000
      5 C5        -11.2778   -0.5081   55.5113 C.2     1  ZINC000481838178    0.1600
      6 N6        -10.1514   -0.0077   55.9670 N.2     1  ZINC000481838178   -0.2800
      7 N7        -10.2194    0.1514   57.2403 N.2     1  ZINC000481838178   -0.2500
      8 C8        -11.3962   -0.2379   57.6803 C.2     1  ZINC000481838178    0.2700
      9 C9        -11.8606   -0.2137   59.0756 C.2     1  ZINC000481838178    0.0300
     10 C10       -11.1398    0.2103   60.1518 C.2     1  ZINC000481838178   -0.1300
     11 C11       -11.9692    0.0594   61.2799 C.2     1  ZINC000481838178   -0.2100
     12 C12       -13.1418   -0.4430   60.8447 C.2     1  ZINC000481838178   -0.0100
     13 O13       -13.0753   -0.6014   59.5123 O.3     1  ZINC000481838178   -0.1700
     14 N14       -12.1142   -0.6678   56.5835 N.pl3   1  ZINC000481838178   -0.4100
     15 C15       -13.4224   -1.1709   56.5707 C.ar    1  ZINC000481838178    0.1000
     16 C16       -13.6690   -2.4776   56.9696 C.ar    1  ZINC000481838178   -0.0800
     17 C17       -14.9592   -2.9706   56.9557 C.ar    1  ZINC000481838178   -0.1100
     18 C18       -16.0046   -2.1641   56.5452 C.ar    1  ZINC000481838178   -0.1000
     19 C19       -15.7621   -0.8621   56.1472 C.ar    1  ZINC000481838178   -0.1100
     20 C20       -14.4748   -0.3617   56.1643 C.ar    1  ZINC000481838178   -0.0900
     21 N21        -8.2254    0.6894   52.5936 N.am    1  ZINC000481838178   -0.6200
     22 C22        -6.8025    0.3149   52.3755 C.3     1  ZINC000481838178    0.1000
     23 C23        -6.2445    1.5067   51.5888 C.3     1  ZINC000481838178   -0.1100
     24 H24        -6.5896    1.4887   50.5550 H       1  ZINC000481838178    0.0900
     25 C25        -4.7425    1.7098   51.6550 C.3     1  ZINC000481838178   -0.1100
     26 C26        -4.4290    3.0129   50.9012 C.3     1  ZINC000481838178   -0.1200
     27 C27        -5.1807    4.2007   51.4934 C.3     1  ZINC000481838178   -0.1200
     28 C28        -6.6937    3.9337   51.5674 C.3     1  ZINC000481838178   -0.1000
     29 C29        -6.8999    2.6774   52.3815 C.3     1  ZINC000481838178   -0.1100
     30 H30        -6.4052    2.7741   53.3480 H       1  ZINC000481838178    0.0900
     31 C31        -8.3288    2.1692   52.5475 C.3     1  ZINC000481838178    0.1200
     32 H32       -10.6076    1.2619   53.6037 H       1  ZINC000481838178    0.1300
     33 H33       -11.0874    0.5911   52.0263 H       1  ZINC000481838178    0.1300
     34 H34       -10.1282    0.5884   60.1415 H       1  ZINC000481838178    0.1600
     35 H35       -11.7137    0.3004   62.3011 H       1  ZINC000481838178    0.1600
     36 H36       -13.9954   -0.6755   61.4642 H       1  ZINC000481838178    0.2100
     37 H37       -12.8528   -3.1082   57.2901 H       1  ZINC000481838178    0.1300
     38 H38       -15.1516   -3.9871   57.2657 H       1  ZINC000481838178    0.1400
     39 H39       -17.0126   -2.5518   56.5349 H       1  ZINC000481838178    0.1300
     40 H40       -16.5807   -0.2347   55.8266 H       1  ZINC000481838178    0.1400
     41 H41       -14.2861    0.6552   55.8534 H       1  ZINC000481838178    0.1300
     42 H42        -6.2831    0.2048   53.3275 H       1  ZINC000481838178    0.0800
     43 H43        -6.7312   -0.6010   51.7887 H       1  ZINC000481838178    0.0800
     44 H44        -4.4246    1.7959   52.6941 H       1  ZINC000481838178    0.0700
     45 H45        -4.2330    0.8726   51.1778 H       1  ZINC000481838178    0.0700
     46 H46        -3.3577    3.2067   50.9561 H       1  ZINC000481838178    0.0600
     47 H47        -4.7149    2.8965   49.8557 H       1  ZINC000481838178    0.0600
     48 H48        -4.8041    4.3952   52.4976 H       1  ZINC000481838178    0.0600
     49 H49        -5.0042    5.0790   50.8722 H       1  ZINC000481838178    0.0700
     50 H50        -7.1962    4.7737   52.0469 H       1  ZINC000481838178    0.0700
     51 H51        -7.0939    3.7834   50.5647 H       1  ZINC000481838178    0.0700
     52 H52        -8.9424    2.4893   51.7055 H       1  ZINC000481838178    0.0700
     53 H53        -8.7521    2.5350   53.4830 H       1  ZINC000481838178    0.0700
@<TRIPOS>BOND
     1     1     2    2
     2     2     3    1
     3     2    21   am
     4     3     4    1
     5     3    32    1
     6     3    33    1
     7     4     5    1
     8     5    14    1
     9     5     6    2
    10     6     7    1
    11     7     8    2
    12     8     9    1
    13     8    14    1
    14     9    13    1
    15     9    10    2
    16    10    11    1
    17    10    34    1
    18    11    12    2
    19    11    35    1
    20    12    13    1
    21    12    36    1
    22    14    15    1
    23    15    20   ar
    24    15    16   ar
    25    16    17   ar
    26    16    37    1
    27    17    18   ar
    28    17    38    1
    29    18    19   ar
    30    18    39    1
    31    19    20   ar
    32    19    40    1
    33    20    41    1
    34    21    31    1
    35    21    22    1
    36    22    23    1
    37    22    42    1
    38    22    43    1
    39    23    24    1
    40    23    29    1
    41    23    25    1
    42    25    26    1
    43    25    44    1
    44    25    45    1
    45    26    27    1
    46    26    46    1
    47    26    47    1
    48    27    28    1
    49    27    48    1
    50    27    49    1
    51    28    29    1
    52    28    50    1
    53    28    51    1
    54    29    30    1
    55    29    31    1
    56    31    52    1
    57    31    53    1
@<TRIPOS>SUBSTRUCTURE
     1 ZINC000481838178        1 TEMP              0 ****  ****    0 ROOT


##########                                Name:    ZINC001500042809
##########                DOCK_Rotatable_Bonds:                   9
##########                         Heavy_Atoms:                  24
##########                    Molecular_Weight:              346.45
##########                DOCK_Rotatable_Bonds:                   9
##########                       Formal_Charge:           0.0200001
##########                     HBond_Acceptors:                   6
##########                        HBond_Donors:                   2
##########                         Heavy_Atoms:                  24
##########                          Grid_Score:          -31.244282
##########                     Grid_vdw_energy:          -31.470284
##########                      Grid_es_energy:            0.226002
##########           Internal_energy_repulsive:           15.383115

@<TRIPOS>MOLECULE
ZINC001500042809
 46 47 1 0 0
SMALL
USER_CHARGES


@<TRIPOS>ATOM
      1 C1          1.2356    4.3991   51.9608 C.3     1  ZINC001500042809    0.0200
      2 O2          0.7853    3.0955   52.3347 O.3     1  ZINC001500042809   -0.3100
      3 C3         -0.4902    2.7668   52.0074 C.ar    1  ZINC001500042809    0.1600
      4 C4         -0.7501    2.0995   50.8161 C.ar    1  ZINC001500042809   -0.1600
      5 C5         -2.0429    1.7647   50.4803 C.ar    1  ZINC001500042809   -0.0200
      6 C6         -3.0941    2.0964   51.3391 C.ar    1  ZINC001500042809   -0.1800
      7 C7         -4.4813    1.7393   50.9829 C.2     1  ZINC001500042809    0.5600
      8 O8         -4.9791    2.1767   49.9636 O.2     1  ZINC001500042809   -0.5300
      9 N9         -5.1961    0.9283   51.7878 N.am    1  ZINC001500042809   -0.7300
     10 C10        -6.5724    0.5724   51.4334 C.3     1  ZINC001500042809    0.1300
     11 C11        -7.3659    0.2735   52.7069 C.3     1  ZINC001500042809   -0.1200
     12 H12        -6.8309   -0.4657   53.3032 H       1  ZINC001500042809    0.0900
     13 C13        -7.5318    1.5599   53.5183 C.3     1  ZINC001500042809   -0.1500
     14 C14        -8.7444   -0.2745   52.3321 C.3     1  ZINC001500042809    0.1300
     15 N15        -9.4215   -0.7592   53.5374 N.am    1  ZINC001500042809   -0.7300
     16 C16       -10.7545   -0.6097   53.6678 C.2     1  ZINC001500042809    0.5900
     17 O17       -11.3960   -0.0732   52.7837 O.2     1  ZINC001500042809   -0.5200
     18 C18       -11.4317   -1.0931   54.8746 C.2     1  ZINC001500042809   -0.2800
     19 C19       -12.7270   -0.8255   55.2179 C.2     1  ZINC001500042809   -0.0100
     20 C20       -13.6484    0.0216   54.3786 C.3     1  ZINC001500042809   -0.1100
     21 C21       -13.1061   -1.4064   56.4048 C.2     1  ZINC001500042809   -0.1500
     22 C22       -12.1558   -2.1252   57.0140 C.2     1  ZINC001500042809   -0.2200
     23 S23       -10.7097   -2.1165   56.1087 S.3     1  ZINC001500042809    0.1900
     24 C24        -2.8291    2.7719   52.5332 C.ar    1  ZINC001500042809   -0.0400
     25 C25        -1.5330    3.0989   52.8641 C.ar    1  ZINC001500042809   -0.2200
     26 H26         1.1737    4.5082   50.8780 H       1  ZINC001500042809    0.0600
     27 H27         0.6076    5.1512   52.4383 H       1  ZINC001500042809    0.0600
     28 H28         2.2690    4.5321   52.2808 H       1  ZINC001500042809    0.1000
     29 H29         0.0629    1.8435   50.1529 H       1  ZINC001500042809    0.1400
     30 H30        -2.2441    1.2467   49.5543 H       1  ZINC001500042809    0.1400
     31 H31        -4.7994    0.5802   52.6015 H       1  ZINC001500042809    0.4000
     32 H32        -6.5662   -0.3102   50.7936 H       1  ZINC001500042809    0.0800
     33 H33        -7.0372    1.4030   50.9023 H       1  ZINC001500042809    0.0800
     34 H34        -6.5497    1.9503   53.7852 H       1  ZINC001500042809    0.0600
     35 H35        -8.0667    2.2991   52.9219 H       1  ZINC001500042809    0.0600
     36 H36        -8.0971    1.3470   54.4255 H       1  ZINC001500042809    0.0600
     37 H37        -9.3381    0.5173   51.8753 H       1  ZINC001500042809    0.0800
     38 H38        -8.6289   -1.0959   51.6249 H       1  ZINC001500042809    0.0800
     39 H39        -8.9103   -1.1880   54.2416 H       1  ZINC001500042809    0.4000
     40 H40       -14.1784   -0.6126   53.6679 H       1  ZINC001500042809    0.0800
     41 H41       -14.3684    0.5244   55.0242 H       1  ZINC001500042809    0.0700
     42 H42       -13.0647    0.7657   53.8365 H       1  ZINC001500042809    0.0900
     43 H43       -14.0981   -1.2908   56.8156 H       1  ZINC001500042809    0.1500
     44 H44       -12.2881   -2.6448   57.9515 H       1  ZINC001500042809    0.1700
     45 H45        -3.6394    3.0339   53.1975 H       1  ZINC001500042809    0.1300
     46 H46        -1.3271    3.6181   53.7884 H       1  ZINC001500042809    0.1400
@<TRIPOS>BOND
     1     1     2    1
     2     1    26    1
     3     1    27    1
     4     1    28    1
     5     2     3    1
     6     3    25   ar
     7     3     4   ar
     8     4     5   ar
     9     4    29    1
    10     5     6   ar
    11     5    30    1
    12     6     7    1
    13     6    24   ar
    14     7     8    2
    15     7     9   am
    16     9    10    1
    17     9    31    1
    18    10    11    1
    19    10    32    1
    20    10    33    1
    21    11    12    1
    22    11    13    1
    23    11    14    1
    24    13    34    1
    25    13    35    1
    26    13    36    1
    27    14    15    1
    28    14    37    1
    29    14    38    1
    30    15    16   am
    31    15    39    1
    32    16    17    2
    33    16    18    1
    34    18    23    1
    35    18    19    2
    36    19    20    1
    37    19    21    1
    38    20    40    1
    39    20    41    1
    40    20    42    1
    41    21    22    2
    42    21    43    1
    43    22    23    1
    44    22    44    1
    45    24    25   ar
    46    24    45    1
    47    25    46    1
@<TRIPOS>SUBSTRUCTURE
     1 ZINC001500042809        1 TEMP              0 ****  ****    0 ROOT


##########                                Name:    ZINC000151303733
##########                DOCK_Rotatable_Bonds:                   7
##########                         Heavy_Atoms:                  26
##########                    Molecular_Weight:             369.444
##########                DOCK_Rotatable_Bonds:                   7
##########                       Formal_Charge:        -1.93715e-07
##########                     HBond_Acceptors:                   7
##########                        HBond_Donors:                   2
##########                         Heavy_Atoms:                  26
##########                          Grid_Score:          -31.229740
##########                     Grid_vdw_energy:          -30.809786
##########                      Grid_es_energy:           -0.419954
##########           Internal_energy_repulsive:           65.465645

@<TRIPOS>MOLECULE
ZINC000151303733
 45 48 1 0 0
SMALL
USER_CHARGES


@<TRIPOS>ATOM
      1 C1         -8.8909    2.6754   55.3754 C.3     1  ZINC000151303733   -0.1000
      2 C2         -9.9033    1.7219   54.7948 C.2     1  ZINC000151303733   -0.1200
      3 C3        -11.1936    1.7535   55.1304 C.2     1  ZINC000151303733   -0.2000
      4 S4        -12.0644    0.4999   54.2571 S.3     1  ZINC000151303733    0.1200
      5 C5        -10.5850   -0.0163   53.4583 C.2     1  ZINC000151303733   -0.2400
      6 C6         -9.5649    0.7478   53.8658 C.2     1  ZINC000151303733    0.1200
      7 N7         -8.2501    0.5711   53.3965 N.am    1  ZINC000151303733   -0.6400
      8 C8         -7.9787   -0.3993   52.5015 C.2     1  ZINC000151303733    0.5100
      9 O9         -8.8679   -1.1206   52.1005 O.2     1  ZINC000151303733   -0.5100
     10 C10        -6.5706   -0.5885   51.9989 C.3     1  ZINC000151303733    0.1000
     11 N11        -5.8422    0.6786   52.0986 N.am    1  ZINC000151303733   -0.7100
     12 C12        -5.8403    1.5383   51.0606 C.2     1  ZINC000151303733    0.5200
     13 O13        -6.4405    1.2622   50.0435 O.2     1  ZINC000151303733   -0.5100
     14 C14        -5.0925    2.8426   51.1637 C.3     1  ZINC000151303733    0.1600
     15 H15        -5.4059    3.5176   50.3674 H       1  ZINC000151303733    0.1300
     16 C16        -3.6069    2.5963   51.0799 C.ar    1  ZINC000151303733   -0.0900
     17 C17        -2.7953    2.0510   50.1127 C.ar    1  ZINC000151303733   -0.0900
     18 C18        -1.4304    1.9548   50.3285 C.ar    1  ZINC000151303733   -0.0800
     19 C19        -0.8804    2.4058   51.5151 C.ar    1  ZINC000151303733   -0.1200
     20 C20        -1.6857    2.9545   52.4920 C.ar    1  ZINC000151303733   -0.0400
     21 C21        -3.0619    3.0549   52.2818 C.ar    1  ZINC000151303733   -0.1500
     22 C22        -4.1591    3.5812   53.1161 C.2     1  ZINC000151303733    0.5600
     23 O23        -4.0210    4.0565   54.2263 O.2     1  ZINC000151303733   -0.5100
     24 N24        -5.3344    3.4602   52.4726 N.am    1  ZINC000151303733   -0.5700
     25 C25        -6.6390    3.8761   52.9933 C.3     1  ZINC000151303733    0.0900
     26 C26        -6.8640    5.3722   53.2221 C.3     1  ZINC000151303733   -0.1800
     27 C27        -7.5555    4.6642   52.0553 C.3     1  ZINC000151303733   -0.1900
     28 H28        -8.8334    3.5680   54.7525 H       1  ZINC000151303733    0.0700
     29 H29        -9.1925    2.9555   56.3846 H       1  ZINC000151303733    0.0700
     30 H30        -7.9143    2.1923   55.4089 H       1  ZINC000151303733    0.0600
     31 H31       -11.6366    2.4441   55.8327 H       1  ZINC000151303733    0.1700
     32 H32       -10.5120   -0.8237   52.7448 H       1  ZINC000151303733    0.2000
     33 H33        -7.5391    1.1477   53.7172 H       1  ZINC000151303733    0.4200
     34 H34        -6.0681   -1.3448   52.6020 H       1  ZINC000151303733    0.1100
     35 H35        -6.5965   -0.9118   50.9584 H       1  ZINC000151303733    0.1100
     36 H36        -5.3611    0.8989   52.9116 H       1  ZINC000151303733    0.4100
     37 H37        -3.2219    1.6977   49.1855 H       1  ZINC000151303733    0.1300
     38 H38        -0.7940    1.5261   49.5686 H       1  ZINC000151303733    0.1400
     39 H39         0.1845    2.3277   51.6776 H       1  ZINC000151303733    0.1400
     40 H40        -1.2521    3.3057   53.4168 H       1  ZINC000151303733    0.1400
     41 H41        -7.1090    3.1837   53.6917 H       1  ZINC000151303733    0.1400
     42 H42        -7.4821    5.6641   54.0712 H       1  ZINC000151303733    0.1000
     43 H43        -6.0414    6.0469   52.9852 H       1  ZINC000151303733    0.1300
     44 H44        -7.1878    4.8731   51.0507 H       1  ZINC000151303733    0.1000
     45 H45        -8.6285    4.4903   52.1367 H       1  ZINC000151303733    0.1000
@<TRIPOS>BOND
     1     1     2    1
     2     1    28    1
     3     1    29    1
     4     1    30    1
     5     2     6    1
     6     2     3    2
     7     3     4    1
     8     3    31    1
     9     4     5    1
    10     5     6    2
    11     5    32    1
    12     6     7    1
    13     7     8   am
    14     7    33    1
    15     8     9    2
    16     8    10    1
    17    10    11    1
    18    10    34    1
    19    10    35    1
    20    11    12   am
    21    11    36    1
    22    12    13    2
    23    12    14    1
    24    14    15    1
    25    14    24    1
    26    14    16    1
    27    16    21   ar
    28    16    17   ar
    29    17    18   ar
    30    17    37    1
    31    18    19   ar
    32    18    38    1
    33    19    20   ar
    34    19    39    1
    35    20    21   ar
    36    20    40    1
    37    21    22    1
    38    22    23    2
    39    22    24   am
    40    24    25    1
    41    25    27    1
    42    25    26    1
    43    25    41    1
    44    26    27    1
    45    26    42    1
    46    26    43    1
    47    27    44    1
    48    27    45    1
@<TRIPOS>SUBSTRUCTURE
     1 ZINC000151303733        1 TEMP              0 ****  ****    0 ROOT


##########                                Name:    ZINC000989658617
##########                DOCK_Rotatable_Bonds:                   6
##########                         Heavy_Atoms:                  24
##########                    Molecular_Weight:             334.418
##########                DOCK_Rotatable_Bonds:                   6
##########                       Formal_Charge:          -0.0100001
##########                     HBond_Acceptors:                   7
##########                        HBond_Donors:                   2
##########                         Heavy_Atoms:                  24
##########                          Grid_Score:          -31.213490
##########                     Grid_vdw_energy:          -30.294329
##########                      Grid_es_energy:           -0.919161
##########           Internal_energy_repulsive:            9.395968

@<TRIPOS>MOLECULE
ZINC000989658617
 50 52 1 0 0
SMALL
USER_CHARGES


@<TRIPOS>ATOM
      1 C1        -15.9840   -3.2445   58.8442 C.3     1  ZINC000989658617    0.0300
      2 O2        -14.6458   -2.8253   58.5689 O.3     1  ZINC000989658617   -0.3700
      3 C3        -14.3809   -2.5993   57.1830 C.3     1  ZINC000989658617    0.0500
      4 C4        -12.9381   -2.2021   57.0056 C.2     1  ZINC000989658617    0.5300
      5 O5        -12.0852   -2.6789   57.7240 O.2     1  ZINC000989658617   -0.5100
      6 N6        -12.5956   -1.3171   56.0486 N.am    1  ZINC000989658617   -0.6200
      7 C7        -13.5259   -0.6634   55.1102 C.3     1  ZINC000989658617    0.1000
      8 C8        -12.6523   -0.2763   53.8908 C.3     1  ZINC000989658617   -0.1500
      9 C9        -11.3233    0.1350   54.5778 C.3     1  ZINC000989658617    0.1400
     10 H10       -11.3733    1.1658   54.9285 H       1  ZINC000989658617    0.1100
     11 N11       -10.1909   -0.0459   53.6661 N.am    1  ZINC000989658617   -0.7100
     12 C12        -9.1189    0.7662   53.7536 C.2     1  ZINC000989658617    0.6100
     13 O13        -9.0922    1.6498   54.5881 O.2     1  ZINC000989658617   -0.5200
     14 C14        -7.9765    0.5827   52.8355 C.2     1  ZINC000989658617   -0.0100
     15 N15        -7.5579   -0.5578   52.3137 N.2     1  ZINC000989658617   -0.2600
     16 N16        -6.5365   -0.3509   51.5561 N.pl3   1  ZINC000989658617   -0.3700
     17 C17        -6.2309    0.9570   51.5425 C.2     1  ZINC000989658617    0.0100
     18 C18        -7.1267    1.5867   52.3419 C.2     1  ZINC000989658617   -0.1400
     19 C19        -7.1403    3.0664   52.6100 C.3     1  ZINC000989658617   -0.0400
     20 C20        -5.7841    3.6454   52.1846 C.3     1  ZINC000989658617   -0.0900
     21 H21        -5.0130    3.3121   52.8792 H       1  ZINC000989658617    0.0700
     22 C22        -5.8556    5.1736   52.1972 C.3     1  ZINC000989658617   -0.1500
     23 C23        -5.4422    3.1625   50.7725 C.3     1  ZINC000989658617   -0.1100
     24 C24        -5.1257    1.6630   50.7999 C.3     1  ZINC000989658617   -0.0500
     25 C25       -11.2332   -0.8388   55.7717 C.3     1  ZINC000989658617    0.1300
     26 H26       -10.5944   -1.6835   55.5138 H       1  ZINC000989658617    0.0800
     27 C27       -10.6673   -0.1126   56.9938 C.3     1  ZINC000989658617   -0.1600
     28 H28       -16.6817   -2.4793   58.5039 H       1  ZINC000989658617    0.0500
     29 H29       -16.1867   -4.1793   58.3214 H       1  ZINC000989658617    0.0400
     30 H30       -16.1043   -3.3947   59.9170 H       1  ZINC000989658617    0.0900
     31 H31       -14.5780   -3.5127   56.6218 H       1  ZINC000989658617    0.0800
     32 H32       -15.0254   -1.8008   56.8154 H       1  ZINC000989658617    0.0800
     33 H33       -14.3111   -1.3570   54.8093 H       1  ZINC000989658617    0.0800
     34 H34       -13.9593    0.2276   55.5644 H       1  ZINC000989658617    0.0800
     35 H35       -12.5027   -1.1305   53.2305 H       1  ZINC000989658617    0.0800
     36 H36       -13.0880    0.5630   53.3487 H       1  ZINC000989658617    0.1000
     37 H37       -10.2127   -0.7502   52.9995 H       1  ZINC000989658617    0.4100
     38 H38        -6.0585   -1.0387   51.0671 H       1  ZINC000989658617    0.4500
     39 H39        -7.9375    3.5368   52.0344 H       1  ZINC000989658617    0.0800
     40 H40        -7.2992    3.2458   53.6733 H       1  ZINC000989658617    0.0800
     41 H41        -6.0983    5.5177   53.2026 H       1  ZINC000989658617    0.0600
     42 H42        -4.8924    5.5849   51.8951 H       1  ZINC000989658617    0.0600
     43 H43        -6.6269    5.5071   51.5029 H       1  ZINC000989658617    0.0600
     44 H44        -6.2919    3.3388   50.1131 H       1  ZINC000989658617    0.0700
     45 H45        -4.5758    3.7102   50.4015 H       1  ZINC000989658617    0.0800
     46 H46        -4.1794    1.4967   51.3146 H       1  ZINC000989658617    0.0800
     47 H47        -5.0617    1.2825   49.7805 H       1  ZINC000989658617    0.0800
     48 H48       -11.3204    0.7194   57.2568 H       1  ZINC000989658617    0.0600
     49 H49       -10.6066   -0.8061   57.8326 H       1  ZINC000989658617    0.0700
     50 H50        -9.6716    0.2660   56.7626 H       1  ZINC000989658617    0.0700
@<TRIPOS>BOND
     1     1     2    1
     2     1    28    1
     3     1    29    1
     4     1    30    1
     5     2     3    1
     6     3     4    1
     7     3    31    1
     8     3    32    1
     9     4     5    2
    10     4     6   am
    11     6    25    1
    12     6     7    1
    13     7     8    1
    14     7    33    1
    15     7    34    1
    16     8     9    1
    17     8    35    1
    18     8    36    1
    19     9    10    1
    20     9    11    1
    21     9    25    1
    22    11    12   am
    23    11    37    1
    24    12    13    2
    25    12    14    1
    26    14    18    1
    27    14    15    2
    28    15    16    1
    29    16    17    1
    30    16    38    1
    31    17    24    1
    32    17    18    2
    33    18    19    1
    34    19    20    1
    35    19    39    1
    36    19    40    1
    37    20    21    1
    38    20    22    1
    39    20    23    1
    40    22    41    1
    41    22    42    1
    42    22    43    1
    43    23    24    1
    44    23    44    1
    45    23    45    1
    46    24    46    1
    47    24    47    1
    48    25    26    1
    49    25    27    1
    50    27    48    1
    51    27    49    1
    52    27    50    1
@<TRIPOS>SUBSTRUCTURE
     1 ZINC000989658617        1 TEMP              0 ****  ****    0 ROOT


##########                                Name:    ZINC000281092425
##########                DOCK_Rotatable_Bonds:                   8
##########                         Heavy_Atoms:                  23
##########                    Molecular_Weight:             332.304
##########                DOCK_Rotatable_Bonds:                   8
##########                       Formal_Charge:         2.98023e-08
##########                     HBond_Acceptors:                   9
##########                        HBond_Donors:                   2
##########                         Heavy_Atoms:                  23
##########                          Grid_Score:          -31.193123
##########                     Grid_vdw_energy:          -29.813955
##########                      Grid_es_energy:           -1.379167
##########           Internal_energy_repulsive:           23.280985

@<TRIPOS>MOLECULE
ZINC000281092425
 41 42 1 0 0
SMALL
USER_CHARGES


@<TRIPOS>ATOM
      1 O1          2.1191    3.6957   53.5364 O.2     1  ZINC000281092425   -0.1800
      2 N2          1.9302    3.1138   52.4831 N.pl3   1  ZINC000281092425    0.0400
      3 O3          2.8772    2.7124   51.8307 O.2     1  ZINC000281092425   -0.1500
      4 C4          0.5497    2.8893   51.9990 C.ar    1  ZINC000281092425   -0.1200
      5 C5         -0.5239    3.3450   52.7398 C.ar    1  ZINC000281092425    0.0200
      6 C6         -1.8141    3.1373   52.2914 C.ar    1  ZINC000281092425   -0.2200
      7 C7         -2.0348    2.4696   51.0932 C.ar    1  ZINC000281092425    0.3000
      8 N8         -3.3389    2.2598   50.6394 N.pl3   1  ZINC000281092425   -0.7200
      9 C9         -4.2078    1.3005   51.3256 C.3     1  ZINC000281092425    0.1200
     10 C10        -5.5836    1.9304   51.5528 C.3     1  ZINC000281092425   -0.0900
     11 H11        -5.4638    2.9005   52.0351 H       1  ZINC000281092425    0.0900
     12 C12        -6.2893    2.1131   50.2077 C.3     1  ZINC000281092425    0.0800
     13 O13        -6.8746    3.4154   50.1499 O.3     1  ZINC000281092425   -0.5700
     14 C14        -6.4216    1.0157   52.4484 C.3     1  ZINC000281092425   -0.1100
     15 H15        -5.9854    0.9456   53.4449 H       1  ZINC000281092425    0.0900
     16 C16        -7.8919    1.5104   52.5222 C.3     1  ZINC000281092425   -0.1600
     17 C17        -8.6366    0.1795   52.7958 C.3     1  ZINC000281092425    0.0500
     18 O18        -7.9264   -0.8108   52.0354 O.3     1  ZINC000281092425   -0.3900
     19 C19        -6.5732   -0.3841   51.8154 C.3     1  ZINC000281092425    0.0700
     20 C20        -0.9571    2.0113   50.3475 C.ar    1  ZINC000281092425   -0.2800
     21 C21         0.3355    2.2260   50.7986 C.ar    1  ZINC000281092425    0.2300
     22 O22         1.3926    1.7791   50.0706 O.3     1  ZINC000281092425   -0.2900
     23 C23         1.3772    2.0538   48.6684 C.3     1  ZINC000281092425    0.4100
     24 F24         2.2103    3.1447   48.3977 F       1  ZINC000281092425   -0.1900
     25 F25         1.8350    0.9323   47.9685 F       1  ZINC000281092425   -0.1900
     26 H26        -0.3542    3.8643   53.6715 H       1  ZINC000281092425    0.1600
     27 H27        -2.6515    3.4940   52.8726 H       1  ZINC000281092425    0.1500
     28 H28        -3.6693    2.7492   49.8699 H       1  ZINC000281092425    0.4100
     29 H29        -4.3149    0.4049   50.7137 H       1  ZINC000281092425    0.0800
     30 H30        -3.7672    1.0337   52.2862 H       1  ZINC000281092425    0.0800
     31 H31        -5.5656    2.0038   49.3999 H       1  ZINC000281092425    0.0500
     32 H32        -7.0692    1.3590   50.1012 H       1  ZINC000281092425    0.0500
     33 H33        -7.3464    3.5983   49.3258 H       1  ZINC000281092425    0.3800
     34 H34        -8.0291    2.2134   53.3439 H       1  ZINC000281092425    0.0800
     35 H35        -8.2067    1.9493   51.5755 H       1  ZINC000281092425    0.0800
     36 H36        -8.6015   -0.0623   53.8581 H       1  ZINC000281092425    0.0600
     37 H37        -9.6702    0.2477   52.4565 H       1  ZINC000281092425    0.0900
     38 H38        -6.3728   -0.3270   50.7455 H       1  ZINC000281092425    0.0800
     39 H39        -5.8834   -1.0854   52.2850 H       1  ZINC000281092425    0.0700
     40 H40        -1.1257    1.4920   49.4157 H       1  ZINC000281092425    0.1500
     41 H41         0.3596    2.2872   48.3550 H       1  ZINC000281092425    0.1900
@<TRIPOS>BOND
     1     1     2    2
     2     2     3    2
     3     2     4    1
     4     4    21   ar
     5     4     5   ar
     6     5     6   ar
     7     5    26    1
     8     6     7   ar
     9     6    27    1
    10     7     8    1
    11     7    20   ar
    12     8     9    1
    13     8    28    1
    14     9    10    1
    15     9    29    1
    16     9    30    1
    17    10    11    1
    18    10    12    1
    19    10    14    1
    20    12    13    1
    21    12    31    1
    22    12    32    1
    23    13    33    1
    24    14    15    1
    25    14    19    1
    26    14    16    1
    27    16    17    1
    28    16    34    1
    29    16    35    1
    30    17    18    1
    31    17    36    1
    32    17    37    1
    33    18    19    1
    34    19    38    1
    35    19    39    1
    36    20    21   ar
    37    20    40    1
    38    21    22    1
    39    22    23    1
    40    23    24    1
    41    23    25    1
    42    23    41    1
@<TRIPOS>SUBSTRUCTURE
     1 ZINC000281092425        1 TEMP              0 ****  ****    0 ROOT


##########                                Name:    ZINC000534890536
##########                DOCK_Rotatable_Bonds:                   6
##########                         Heavy_Atoms:                  30
##########                    Molecular_Weight:             411.476
##########                DOCK_Rotatable_Bonds:                   6
##########                       Formal_Charge:          0.00999957
##########                     HBond_Acceptors:                   7
##########                        HBond_Donors:                   1
##########                         Heavy_Atoms:                  30
##########                          Grid_Score:          -31.189798
##########                     Grid_vdw_energy:          -30.997293
##########                      Grid_es_energy:           -0.192505
##########           Internal_energy_repulsive:           15.235819

@<TRIPOS>MOLECULE
ZINC000534890536
 56 59 1 0 0
SMALL
USER_CHARGES


@<TRIPOS>ATOM
      1 C1        -16.2843   -3.5104   58.5283 C.3     1  ZINC000534890536    0.0300
      2 O2        -15.3096   -2.9274   59.3957 O.3     1  ZINC000534890536   -0.3200
      3 C3        -14.2094   -2.3846   58.8112 C.ar    1  ZINC000534890536    0.1300
      4 C4        -13.3062   -1.6566   59.5720 C.ar    1  ZINC000534890536   -0.2100
      5 C5        -12.1883   -1.1062   58.9756 C.ar    1  ZINC000534890536   -0.0700
      6 C6        -11.9694   -1.2800   57.6214 C.ar    1  ZINC000534890536   -0.1100
      7 C7        -10.7494   -0.6780   56.9732 C.3     1  ZINC000534890536   -0.0600
      8 H8         -9.9073   -1.3689   57.0131 H       1  ZINC000534890536    0.0900
      9 C9        -10.3854    0.6810   57.6274 C.3     1  ZINC000534890536   -0.1200
     10 C10        -9.6485    1.4241   56.4933 C.3     1  ZINC000534890536    0.1000
     11 N11       -10.0712    0.8133   55.2245 N.am    1  ZINC000534890536   -0.6400
     12 C12        -9.6356    1.1669   53.9990 C.2     1  ZINC000534890536    0.7300
     13 O13       -10.0565    0.5907   53.0145 O.2     1  ZINC000534890536   -0.5700
     14 N14        -8.7336    2.1593   53.8647 N.am    1  ZINC000534890536   -0.7300
     15 C15        -8.2590    2.5425   52.5328 C.3     1  ZINC000534890536    0.1600
     16 H16        -8.6882    1.8718   51.7886 H       1  ZINC000534890536    0.1200
     17 C17        -8.6925    3.9795   52.2325 C.3     1  ZINC000534890536   -0.1300
     18 C18        -7.9612    4.4527   50.9705 C.3     1  ZINC000534890536   -0.1300
     19 C19        -6.4697    4.5738   51.2852 C.3     1  ZINC000534890536    0.1100
     20 N20        -5.9786    3.3504   51.9070 N.am    1  ZINC000534890536   -0.5600
     21 C21        -4.5980    3.1156   51.8931 C.ar    1  ZINC000534890536    0.1000
     22 C22        -3.8258    3.4422   52.9989 C.ar    1  ZINC000534890536   -0.0800
     23 C23        -2.4639    3.2089   52.9827 C.ar    1  ZINC000534890536   -0.1200
     24 C24        -1.8690    2.6513   51.8664 C.ar    1  ZINC000534890536   -0.0800
     25 C25        -2.6342    2.3242   50.7616 C.ar    1  ZINC000534890536   -0.1500
     26 C26        -3.9984    2.5494   50.7731 C.ar    1  ZINC000534890536    0.1100
     27 F27        -4.7461    2.2296   49.6943 F       1  ZINC000534890536   -0.1300
     28 C28        -6.7612    2.4429   52.4893 C.2     1  ZINC000534890536    0.5000
     29 O29        -6.2361    1.4820   53.0110 O.2     1  ZINC000534890536   -0.5100
     30 C30       -11.0491   -0.2516   55.5144 C.3     1  ZINC000534890536    0.1300
     31 C31       -12.8680   -2.0056   56.8610 C.ar    1  ZINC000534890536   -0.0700
     32 C32       -13.9847   -2.5624   57.4538 C.ar    1  ZINC000534890536   -0.1500
     33 H33       -16.6611   -2.7512   57.8429 H       1  ZINC000534890536    0.0600
     34 H34       -15.8262   -4.3190   57.9585 H       1  ZINC000534890536    0.0600
     35 H35       -17.1087   -3.9057   59.1217 H       1  ZINC000534890536    0.1000
     36 H36       -13.4769   -1.5200   60.6296 H       1  ZINC000534890536    0.1300
     37 H37       -11.4848   -0.5394   59.5674 H       1  ZINC000534890536    0.1300
     38 H38       -11.2855    1.2210   57.9212 H       1  ZINC000534890536    0.0800
     39 H39        -9.7266    0.5328   58.4831 H       1  ZINC000534890536    0.0900
     40 H40        -9.9192    2.4799   56.5048 H       1  ZINC000534890536    0.0700
     41 H41        -8.5711    1.3143   56.6168 H       1  ZINC000534890536    0.0700
     42 H42        -8.3988    2.6199   54.6500 H       1  ZINC000534890536    0.4000
     43 H43        -9.7693    4.0108   52.0662 H       1  ZINC000534890536    0.0900
     44 H44        -8.4315    4.6246   53.0715 H       1  ZINC000534890536    0.0800
     45 H45        -8.1083    3.7284   50.1693 H       1  ZINC000534890536    0.0800
     46 H46        -8.3505    5.4238   50.6646 H       1  ZINC000534890536    0.1000
     47 H47        -5.9199    4.7542   50.3614 H       1  ZINC000534890536    0.0800
     48 H48        -6.3117    5.4116   51.9643 H       1  ZINC000534890536    0.0700
     49 H49        -4.2889    3.8785   53.8716 H       1  ZINC000534890536    0.1300
     50 H50        -1.8631    3.4631   53.8434 H       1  ZINC000534890536    0.1300
     51 H51        -0.8042    2.4711   51.8567 H       1  ZINC000534890536    0.1400
     52 H52        -2.1665    1.8886   49.8910 H       1  ZINC000534890536    0.1400
     53 H53       -10.9069   -1.0924   54.8355 H       1  ZINC000534890536    0.0800
     54 H54       -12.0653    0.1344   55.4339 H       1  ZINC000534890536    0.0700
     55 H55       -12.6946   -2.1402   55.8036 H       1  ZINC000534890536    0.1300
     56 H56       -14.6862   -3.1290   56.8595 H       1  ZINC000534890536    0.1300
@<TRIPOS>BOND
     1     1     2    1
     2     1    33    1
     3     1    34    1
     4     1    35    1
     5     2     3    1
     6     3    32   ar
     7     3     4   ar
     8     4     5   ar
     9     4    36    1
    10     5     6   ar
    11     5    37    1
    12     6     7    1
    13     6    31   ar
    14     7     8    1
    15     7    30    1
    16     7     9    1
    17     9    10    1
    18     9    38    1
    19     9    39    1
    20    10    11    1
    21    10    40    1
    22    10    41    1
    23    11    12   am
    24    11    30    1
    25    12    13    2
    26    12    14   am
    27    14    15    1
    28    14    42    1
    29    15    16    1
    30    15    28    1
    31    15    17    1
    32    17    18    1
    33    17    43    1
    34    17    44    1
    35    18    19    1
    36    18    45    1
    37    18    46    1
    38    19    20    1
    39    19    47    1
    40    19    48    1
    41    20    21    1
    42    20    28   am
    43    21    26   ar
    44    21    22   ar
    45    22    23   ar
    46    22    49    1
    47    23    24   ar
    48    23    50    1
    49    24    25   ar
    50    24    51    1
    51    25    26   ar
    52    25    52    1
    53    26    27    1
    54    28    29    2
    55    30    53    1
    56    30    54    1
    57    31    32   ar
    58    31    55    1
    59    32    56    1
@<TRIPOS>SUBSTRUCTURE
     1 ZINC000534890536        1 TEMP              0 ****  ****    0 ROOT


##########                                Name:    ZINC001574157642
##########                DOCK_Rotatable_Bonds:                   9
##########                         Heavy_Atoms:                  28
##########                    Molecular_Weight:             387.445
##########                DOCK_Rotatable_Bonds:                   9
##########                       Formal_Charge:          -0.0400004
##########                     HBond_Acceptors:                  11
##########                        HBond_Donors:                   4
##########                         Heavy_Atoms:                  28
##########                          Grid_Score:          -31.183582
##########                     Grid_vdw_energy:          -30.820515
##########                      Grid_es_energy:           -0.363067
##########           Internal_energy_repulsive:           12.438747

@<TRIPOS>MOLECULE
ZINC001574157642
 53 55 1 0 0
SMALL
USER_CHARGES


@<TRIPOS>ATOM
      1 C1        -13.5008    3.9826   52.7491 C.3     1  ZINC001574157642   -0.1400
      2 C2        -12.4188    3.0051   52.2855 C.3     1  ZINC001574157642   -0.0900
      3 C3        -11.9855    3.3614   50.8621 C.3     1  ZINC001574157642   -0.1500
      4 C4        -11.2135    3.0960   53.2235 C.3     1  ZINC001574157642   -0.1300
      5 C5        -10.5386    1.7263   53.3209 C.3     1  ZINC001574157642    0.1300
      6 H6        -10.9079    1.0817   52.5233 H       1  ZINC001574157642    0.1100
      7 C7        -10.8596    1.0948   54.6770 C.3     1  ZINC001574157642    0.1100
      8 N8        -11.8976    0.0751   54.5074 N.pl3   1  ZINC001574157642   -0.7100
      9 C9        -12.5569   -0.4367   55.6181 C.ar    1  ZINC001574157642    0.3700
     10 C10       -12.3481    0.1298   56.8744 C.ar    1  ZINC001574157642    0.0000
     11 N11       -12.9729   -0.3555   57.9288 N.ar    1  ZINC001574157642   -0.3700
     12 C12       -13.8033   -1.3858   57.7938 C.ar    1  ZINC001574157642    0.0800
     13 C13       -14.5072   -1.9321   58.9804 C.2     1  ZINC001574157642    0.2300
     14 N14       -15.4132   -2.8900   58.9868 N.2     1  ZINC001574157642   -0.2700
     15 N15       -15.7816   -3.0761   60.2076 N.pl3   1  ZINC001574157642   -0.2300
     16 N16       -15.1382   -2.2669   60.9748 N.2     1  ZINC001574157642   -0.0400
     17 N17       -14.3415   -1.5518   60.2553 N.2     1  ZINC001574157642   -0.2600
     18 C18       -14.0122   -1.9515   56.5382 C.ar    1  ZINC001574157642    0.1600
     19 N19       -13.3896   -1.4614   55.4817 N.ar    1  ZINC001574157642   -0.5000
     20 N20        -9.0884    1.8860   53.1876 N.am    1  ZINC001574157642   -0.7300
     21 C21        -8.3293    0.8447   52.7925 C.2     1  ZINC001574157642    0.5200
     22 O22        -8.8466   -0.2248   52.5488 O.2     1  ZINC001574157642   -0.5100
     23 C23        -6.8378    1.0094   52.6537 C.3     1  ZINC001574157642   -0.1300
     24 H24        -6.3784    1.0282   53.6420 H       1  ZINC001574157642    0.1100
     25 C25        -6.5310    2.3197   51.9187 C.3     1  ZINC001574157642   -0.1000
     26 C26        -5.0183    2.5510   51.9530 C.3     1  ZINC001574157642   -0.1400
     27 C27        -4.3007    1.3025   51.5271 C.2     1  ZINC001574157642    0.5200
     28 O28        -3.1404    1.3951   51.1864 O.2     1  ZINC001574157642   -0.5500
     29 N29        -4.8708    0.0972   51.5039 N.am    1  ZINC001574157642   -0.7200
     30 C30        -6.2661   -0.1554   51.8445 C.3     1  ZINC001574157642    0.1200
     31 H31       -13.1040    4.9978   52.7335 H       1  ZINC001574157642    0.0400
     32 H32       -14.3594    3.9178   52.0809 H       1  ZINC001574157642    0.0500
     33 H33       -13.8095    3.7287   53.7631 H       1  ZINC001574157642    0.0700
     34 H34       -12.8156    1.9899   52.3012 H       1  ZINC001574157642    0.0700
     35 H35       -11.5887    4.3765   50.8466 H       1  ZINC001574157642    0.0500
     36 H36       -11.2147    2.6650   50.5319 H       1  ZINC001574157642    0.0500
     37 H37       -12.8442    3.2966   50.1940 H       1  ZINC001574157642    0.0500
     38 H38       -10.5029    3.8242   52.8324 H       1  ZINC001574157642    0.0700
     39 H39       -11.5461    3.4083   54.2133 H       1  ZINC001574157642    0.0800
     40 H40        -9.9603    0.6335   55.0851 H       1  ZINC001574157642    0.0800
     41 H41       -11.2153    1.8651   55.3614 H       1  ZINC001574157642    0.0900
     42 H42       -12.1248   -0.2428   53.6195 H       1  ZINC001574157642    0.4100
     43 H43       -11.6739    0.9664   56.9840 H       1  ZINC001574157642    0.1700
     44 H44       -16.4406   -3.7240   60.5022 H       1  ZINC001574157642    0.4800
     45 H45       -14.6860   -2.7883   56.4280 H       1  ZINC001574157642    0.1800
     46 H46        -8.6746    2.7410   53.3837 H       1  ZINC001574157642    0.4000
     47 H47        -6.8679    2.2479   50.8846 H       1  ZINC001574157642    0.0800
     48 H48        -7.0400    3.1464   52.4144 H       1  ZINC001574157642    0.0900
     49 H49        -4.7610    3.3654   51.2757 H       1  ZINC001574157642    0.1100
     50 H50        -4.7152    2.8149   52.9663 H       1  ZINC001574157642    0.1000
     51 H51        -4.3225   -0.6603   51.2463 H       1  ZINC001574157642    0.4000
     52 H52        -6.3339   -1.0734   52.4283 H       1  ZINC001574157642    0.0800
     53 H53        -6.8452   -0.2712   50.9284 H       1  ZINC001574157642    0.0700
@<TRIPOS>BOND
     1     1     2    1
     2     1    31    1
     3     1    32    1
     4     1    33    1
     5     2     3    1
     6     2     4    1
     7     2    34    1
     8     3    35    1
     9     3    36    1
    10     3    37    1
    11     4     5    1
    12     4    38    1
    13     4    39    1
    14     5     6    1
    15     5     7    1
    16     5    20    1
    17     7     8    1
    18     7    40    1
    19     7    41    1
    20     8     9    1
    21     8    42    1
    22     9    19   ar
    23     9    10   ar
    24    10    11   ar
    25    10    43    1
    26    11    12   ar
    27    12    13    1
    28    12    18   ar
    29    13    17    1
    30    13    14    2
    31    14    15    1
    32    15    16    1
    33    15    44    1
    34    16    17    2
    35    18    19   ar
    36    18    45    1
    37    20    21   am
    38    20    46    1
    39    21    22    2
    40    21    23    1
    41    23    24    1
    42    23    30    1
    43    23    25    1
    44    25    26    1
    45    25    47    1
    46    25    48    1
    47    26    27    1
    48    26    49    1
    49    26    50    1
    50    27    28    2
    51    27    29   am
    52    29    30    1
    53    29    51    1
    54    30    52    1
    55    30    53    1
@<TRIPOS>SUBSTRUCTURE
     1 ZINC001574157642        1 TEMP              0 ****  ****    0 ROOT


##########                                Name:    ZINC001436455587
##########                DOCK_Rotatable_Bonds:                   9
##########                         Heavy_Atoms:                  21
##########                    Molecular_Weight:             378.693
##########                DOCK_Rotatable_Bonds:                   9
##########                       Formal_Charge:          -0.0200001
##########                     HBond_Acceptors:                   5
##########                        HBond_Donors:                   1
##########                         Heavy_Atoms:                  21
##########                          Grid_Score:          -31.178091
##########                     Grid_vdw_energy:          -30.548624
##########                      Grid_es_energy:           -0.629468
##########           Internal_energy_repulsive:           13.289790

@<TRIPOS>MOLECULE
ZINC001436455587
 42 42 1 0 0
SMALL
USER_CHARGES


@<TRIPOS>ATOM
      1 C1         -6.4218    4.8367   56.3103 C.3     1  ZINC001436455587   -0.1500
      2 C2         -4.9667    5.0690   55.8987 C.3     1  ZINC001436455587   -0.1300
      3 C3         -4.1882    3.7570   56.0149 C.3     1  ZINC001436455587   -0.1400
      4 C4         -2.7333    3.9889   55.6020 C.3     1  ZINC001436455587    0.0800
      5 H5         -2.3129    4.8020   56.1939 H       1  ZINC001436455587    0.0700
      6 C6         -2.6768    4.3565   54.1178 C.3     1  ZINC001436455587    0.1200
      7 N7         -2.9566    3.1674   53.3092 N.am    1  ZINC001436455587   -0.7200
      8 C8         -2.7256    3.1858   51.9815 C.2     1  ZINC001436455587    0.5200
      9 O9         -2.2846    4.1861   51.4565 O.2     1  ZINC001436455587   -0.5100
     10 C10        -3.0151    1.9631   51.1493 C.3     1  ZINC001436455587    0.0600
     11 H11        -3.0681    1.0875   51.7963 H       1  ZINC001436455587    0.1000
     12 C12        -1.8991    1.7704   50.1207 C.3     1  ZINC001436455587   -0.1800
     13 O13        -4.2625    2.1318   50.4730 O.3     1  ZINC001436455587   -0.2700
     14 C14        -5.3576    1.5678   51.0479 C.ar    1  ZINC001436455587    0.1600
     15 C15        -5.3514    0.2216   51.3804 C.ar    1  ZINC001436455587   -0.2000
     16 C16        -6.4653   -0.3500   51.9652 C.ar    1  ZINC001436455587   -0.0500
     17 C17        -7.5867    0.4194   52.2188 C.ar    1  ZINC001436455587   -0.0700
     18 Cl18       -8.9848   -0.3016   52.9530 Cl      1  ZINC001436455587   -0.0600
     19 C19        -7.5953    1.7632   51.8883 C.ar    1  ZINC001436455587   -0.0400
     20 C20        -6.4815    2.3400   51.3081 C.ar    1  ZINC001436455587   -0.1200
     21 Br21       -6.4934    4.1762   50.8565 Br      1  ZINC001436455587   -0.0100
     22 O22        -1.9784    2.7966   55.8265 O.3     1  ZINC001436455587   -0.3800
     23 C23        -1.5940    2.5999   57.1887 C.3     1  ZINC001436455587    0.0200
     24 H24        -6.8698    4.0891   55.6556 H       1  ZINC001436455587    0.0500
     25 H25        -6.4560    4.4840   57.3412 H       1  ZINC001436455587    0.0600
     26 H26        -6.9765    5.7713   56.2275 H       1  ZINC001436455587    0.0600
     27 H27        -4.9325    5.4215   54.8679 H       1  ZINC001436455587    0.0600
     28 H28        -4.5187    5.8164   56.5535 H       1  ZINC001436455587    0.0700
     29 H29        -4.2214    3.4049   57.0460 H       1  ZINC001436455587    0.0800
     30 H30        -4.6367    3.0092   55.3610 H       1  ZINC001436455587    0.0800
     31 H31        -3.4210    5.1240   53.9050 H       1  ZINC001436455587    0.0800
     32 H32        -1.6842    4.7358   53.8750 H       1  ZINC001436455587    0.0800
     33 H33        -3.3082    2.3669   53.7293 H       1  ZINC001436455587    0.4000
     34 H34        -2.1086    0.8861   49.5188 H       1  ZINC001436455587    0.0800
     35 H35        -1.8461    2.6460   49.4737 H       1  ZINC001436455587    0.0800
     36 H36        -0.9476    1.6417   50.6366 H       1  ZINC001436455587    0.0800
     37 H37        -4.4766   -0.3798   51.1821 H       1  ZINC001436455587    0.1500
     38 H38        -6.4606   -1.3985   52.2243 H       1  ZINC001436455587    0.1400
     39 H39        -8.4716    2.3623   52.0872 H       1  ZINC001436455587    0.1500
     40 H40        -2.4843    2.4500   57.7995 H       1  ZINC001436455587    0.0500
     41 H41        -0.9513    1.7225   57.2618 H       1  ZINC001436455587    0.0900
     42 H42        -1.0531    3.4770   57.5438 H       1  ZINC001436455587    0.0400
@<TRIPOS>BOND
     1     1     2    1
     2     1    24    1
     3     1    25    1
     4     1    26    1
     5     2     3    1
     6     2    27    1
     7     2    28    1
     8     3     4    1
     9     3    29    1
    10     3    30    1
    11     4     5    1
    12     4     6    1
    13     4    22    1
    14     6     7    1
    15     6    31    1
    16     6    32    1
    17     7     8   am
    18     7    33    1
    19     8     9    2
    20     8    10    1
    21    10    11    1
    22    10    12    1
    23    10    13    1
    24    12    34    1
    25    12    35    1
    26    12    36    1
    27    13    14    1
    28    14    20   ar
    29    14    15   ar
    30    15    16   ar
    31    15    37    1
    32    16    17   ar
    33    16    38    1
    34    17    18    1
    35    17    19   ar
    36    19    20   ar
    37    19    39    1
    38    20    21    1
    39    22    23    1
    40    23    40    1
    41    23    41    1
    42    23    42    1
@<TRIPOS>SUBSTRUCTURE
     1 ZINC001436455587        1 TEMP              0 ****  ****    0 ROOT


##########                                Name:    ZINC000463741321
##########                DOCK_Rotatable_Bonds:                   7
##########                         Heavy_Atoms:                  26
##########                    Molecular_Weight:             354.467
##########                DOCK_Rotatable_Bonds:                   7
##########                       Formal_Charge:         -6.4075e-07
##########                     HBond_Acceptors:                   4
##########                        HBond_Donors:                   1
##########                         Heavy_Atoms:                  26
##########                          Grid_Score:          -31.167515
##########                     Grid_vdw_energy:          -30.112597
##########                      Grid_es_energy:           -1.054919
##########           Internal_energy_repulsive:           22.289721

@<TRIPOS>MOLECULE
ZINC000463741321
 53 55 1 0 0
SMALL
USER_CHARGES


@<TRIPOS>ATOM
      1 C1         -6.3490   -0.5210   51.2712 C.3     1  ZINC000463741321   -0.1500
      2 C2         -6.7502    0.9132   51.6223 C.3     1  ZINC000463741321   -0.1100
      3 H3         -7.6898    1.1590   51.1275 H       1  ZINC000463741321    0.1000
      4 C4         -6.9237    1.0379   53.1373 C.3     1  ZINC000463741321   -0.0900
      5 C5         -8.1700    1.8718   53.4410 C.3     1  ZINC000463741321   -0.0800
      6 C6         -9.1668    1.0294   54.1943 C.ar    1  ZINC000463741321   -0.1200
      7 C7         -9.4101    1.2770   55.5318 C.ar    1  ZINC000463741321   -0.0900
      8 C8        -10.3246    0.5042   56.2234 C.ar    1  ZINC000463741321   -0.1300
      9 C9        -10.9961   -0.5171   55.5779 C.ar    1  ZINC000463741321   -0.1000
     10 C10       -10.7541   -0.7669   54.2402 C.ar    1  ZINC000463741321   -0.1500
     11 C11        -9.8436    0.0104   53.5451 C.ar    1  ZINC000463741321    0.1000
     12 F12        -9.6062   -0.2329   52.2376 F       1  ZINC000463741321   -0.1400
     13 C13        -5.6756    1.8630   51.1598 C.2     1  ZINC000463741321    0.5200
     14 O14        -5.6704    2.2615   50.0143 O.2     1  ZINC000463741321   -0.5300
     15 N15        -4.7202    2.2697   52.0190 N.am    1  ZINC000463741321   -0.7300
     16 C16        -3.6745    3.1918   51.5689 C.3     1  ZINC000463741321    0.1500
     17 H17        -3.9443    3.6007   50.5953 H       1  ZINC000463741321    0.1000
     18 C18        -3.5289    4.3325   52.5798 C.3     1  ZINC000463741321   -0.1300
     19 C19        -2.3940    5.2581   52.1330 C.3     1  ZINC000463741321   -0.1200
     20 C20        -1.1016    4.4483   52.0062 C.3     1  ZINC000463741321    0.0600
     21 N21        -1.2922    3.3703   51.0274 N.3     1  ZINC000463741321   -0.4800
     22 C22        -0.0942    2.6929   50.7893 C.ar    1  ZINC000463741321    0.1100
     23 C23         0.7825    2.4398   51.8368 C.ar    1  ZINC000463741321   -0.1700
     24 C24         1.9659    1.7693   51.5980 C.ar    1  ZINC000463741321   -0.0900
     25 C25         2.2790    1.3505   50.3178 C.ar    1  ZINC000463741321   -0.1500
     26 C26         1.4086    1.6007   49.2728 C.ar    1  ZINC000463741321   -0.0900
     27 C27         0.2208    2.2657   49.5055 C.ar    1  ZINC000463741321   -0.1400
     28 C28        -2.3453    2.4415   51.4574 C.3     1  ZINC000463741321    0.0500
     29 H29        -5.4093   -0.7668   51.7659 H       1  ZINC000463741321    0.0600
     30 H30        -7.1263   -1.2079   51.6057 H       1  ZINC000463741321    0.0700
     31 H31        -6.2254   -0.6098   50.1919 H       1  ZINC000463741321    0.0600
     32 H32        -7.0358    0.0451   53.5731 H       1  ZINC000463741321    0.0700
     33 H33        -6.0473    1.5254   53.5644 H       1  ZINC000463741321    0.0700
     34 H34        -7.8915    2.7340   54.0469 H       1  ZINC000463741321    0.0800
     35 H35        -8.6154    2.2132   52.5066 H       1  ZINC000463741321    0.0800
     36 H36        -8.8855    2.0742   56.0373 H       1  ZINC000463741321    0.1300
     37 H37       -10.5140    0.6985   57.2687 H       1  ZINC000463741321    0.1300
     38 H38       -11.7100   -1.1204   56.1192 H       1  ZINC000463741321    0.1300
     39 H39       -11.2784   -1.5654   53.7363 H       1  ZINC000463741321    0.1400
     40 H40        -4.7251    1.9520   52.9355 H       1  ZINC000463741321    0.4000
     41 H41        -4.4605    4.8961   52.6297 H       1  ZINC000463741321    0.0700
     42 H42        -3.2979    3.9211   53.5625 H       1  ZINC000463741321    0.0600
     43 H43        -2.6430    5.6996   51.1681 H       1  ZINC000463741321    0.0800
     44 H44        -2.2571    6.0485   52.8711 H       1  ZINC000463741321    0.0800
     45 H45        -0.2947    5.1016   51.6744 H       1  ZINC000463741321    0.0900
     46 H46        -0.8458    4.0184   52.9746 H       1  ZINC000463741321    0.0500
     47 H47         0.5388    2.7673   52.8367 H       1  ZINC000463741321    0.1200
     48 H48         2.6479    1.5722   52.4118 H       1  ZINC000463741321    0.1200
     49 H49         3.2056    0.8270   50.1337 H       1  ZINC000463741321    0.1200
     50 H50         1.6562    1.2723   48.2741 H       1  ZINC000463741321    0.1200
     51 H51        -0.4587    2.4606   48.6890 H       1  ZINC000463741321    0.1300
     52 H52        -2.0841    2.0208   52.4285 H       1  ZINC000463741321    0.0500
     53 H53        -2.4410    1.6378   50.7273 H       1  ZINC000463741321    0.0900
@<TRIPOS>BOND
     1     1     2    1
     2     1    29    1
     3     1    30    1
     4     1    31    1
     5     2     3    1
     6     2     4    1
     7     2    13    1
     8     4     5    1
     9     4    32    1
    10     4    33    1
    11     5     6    1
    12     5    34    1
    13     5    35    1
    14     6    11   ar
    15     6     7   ar
    16     7     8   ar
    17     7    36    1
    18     8     9   ar
    19     8    37    1
    20     9    10   ar
    21     9    38    1
    22    10    11   ar
    23    10    39    1
    24    11    12    1
    25    13    14    2
    26    13    15   am
    27    15    16    1
    28    15    40    1
    29    16    17    1
    30    16    28    1
    31    16    18    1
    32    18    19    1
    33    18    41    1
    34    18    42    1
    35    19    20    1
    36    19    43    1
    37    19    44    1
    38    20    21    1
    39    20    45    1
    40    20    46    1
    41    21    22    1
    42    21    28    1
    43    22    27   ar
    44    22    23   ar
    45    23    24   ar
    46    23    47    1
    47    24    25   ar
    48    24    48    1
    49    25    26   ar
    50    25    49    1
    51    26    27   ar
    52    26    50    1
    53    27    51    1
    54    28    52    1
    55    28    53    1
@<TRIPOS>SUBSTRUCTURE
     1 ZINC000463741321        1 TEMP              0 ****  ****    0 ROOT


##########                                Name:    ZINC000572148596
##########                DOCK_Rotatable_Bonds:                   4
##########                         Heavy_Atoms:                  26
##########                    Molecular_Weight:             371.463
##########                DOCK_Rotatable_Bonds:                   4
##########                       Formal_Charge:          -0.0199999
##########                     HBond_Acceptors:                   8
##########                        HBond_Donors:                   0
##########                         Heavy_Atoms:                  26
##########                          Grid_Score:          -31.155092
##########                     Grid_vdw_energy:          -30.262087
##########                      Grid_es_energy:           -0.893005
##########           Internal_energy_repulsive:            4.759256

@<TRIPOS>MOLECULE
ZINC000572148596
 47 50 1 0 0
SMALL
USER_CHARGES


@<TRIPOS>ATOM
      1 C1          4.9346    2.5450   49.4392 C.3     1  ZINC000572148596   -0.1400
      2 C2          4.1018    2.1693   50.6665 C.3     1  ZINC000572148596    0.0800
      3 H3          4.2117    2.9397   51.4298 H       1  ZINC000572148596    0.1200
      4 C4          2.6515    2.0548   50.2736 C.2     1  ZINC000572148596    0.1800
      5 N5          2.1978    1.7061   49.1058 N.2     1  ZINC000572148596   -0.3500
      6 O6          0.9850    1.7076   49.1034 O.3     1  ZINC000572148596    0.0900
      7 C7          0.5308    2.0704   50.3133 C.2     1  ZINC000572148596    0.2300
      8 C8         -0.8816    2.1951   50.7242 C.ar    1  ZINC000572148596   -0.1200
      9 C9         -1.2121    2.6991   51.9905 C.ar    1  ZINC000572148596   -0.0100
     10 C10        -2.5355    2.7972   52.3295 C.ar    1  ZINC000572148596   -0.1900
     11 C11        -3.5069    2.3971   51.4149 C.ar    1  ZINC000572148596    0.3400
     12 N12        -4.8474    2.4955   51.7547 N.3     1  ZINC000572148596   -0.4700
     13 C13        -5.4260    1.1677   52.0063 C.3     1  ZINC000572148596    0.0300
     14 C14        -6.8871    1.3266   52.4351 C.3     1  ZINC000572148596    0.0900
     15 H15        -7.3367    0.3424   52.5677 H       1  ZINC000572148596    0.1100
     16 C16        -6.9514    2.0994   53.7541 C.3     1  ZINC000572148596   -0.1800
     17 O17        -7.5998    2.0451   51.4246 O.3     1  ZINC000572148596   -0.3700
     18 C18        -7.0636    3.3431   51.1544 C.3     1  ZINC000572148596    0.0800
     19 H19        -7.1145    3.9528   52.0564 H       1  ZINC000572148596    0.0700
     20 C20        -7.8745    4.0092   50.0410 C.3     1  ZINC000572148596   -0.1400
     21 C21        -5.6043    3.2046   50.7127 C.3     1  ZINC000572148596    0.0300
     22 N22        -3.1674    1.9240   50.2239 N.ar    1  ZINC000572148596   -0.5200
     23 C23        -1.9072    1.8186   49.8560 C.ar    1  ZINC000572148596    0.1900
     24 N24         1.5949    2.2885   51.0671 N.2     1  ZINC000572148596   -0.4700
     25 C25         4.5801    0.8489   51.2131 C.2     1  ZINC000572148596    0.0400
     26 N26         4.1342   -0.3060   50.8495 N.2     1  ZINC000572148596   -0.4500
     27 C27         4.6637   -1.3643   51.4290 C.2     1  ZINC000572148596    0.0400
     28 C28         5.6092   -1.0867   52.3320 C.2     1  ZINC000572148596   -0.2500
     29 S29         5.7972    0.6639   52.3995 S.3     1  ZINC000572148596    0.1400
     30 H30         4.8248    1.7746   48.6759 H       1  ZINC000572148596    0.0800
     31 H31         4.5887    3.5001   49.0439 H       1  ZINC000572148596    0.0700
     32 H32         5.9836    2.6279   49.7234 H       1  ZINC000572148596    0.0800
     33 H33        -0.4407    3.0026   52.6827 H       1  ZINC000572148596    0.1500
     34 H34        -2.8231    3.1809   53.2973 H       1  ZINC000572148596    0.1500
     35 H35        -5.3768    0.5707   51.0957 H       1  ZINC000572148596    0.0600
     36 H36        -4.8662    0.6710   52.7988 H       1  ZINC000572148596    0.1000
     37 H37        -6.5031    3.0839   53.6206 H       1  ZINC000572148596    0.0700
     38 H38        -7.9918    2.2122   54.0589 H       1  ZINC000572148596    0.0600
     39 H39        -6.4049    1.5525   54.5226 H       1  ZINC000572148596    0.0700
     40 H40        -8.9137    4.1040   50.3553 H       1  ZINC000572148596    0.0700
     41 H41        -7.4652    4.9983   49.8356 H       1  ZINC000572148596    0.0700
     42 H42        -7.8219    3.3997   49.1388 H       1  ZINC000572148596    0.0600
     43 H43        -5.1745    4.1946   50.5607 H       1  ZINC000572148596    0.1000
     44 H44        -5.5580    2.6401   49.7814 H       1  ZINC000572148596    0.0600
     45 H45        -1.6653    1.4289   48.8782 H       1  ZINC000572148596    0.1700
     46 H46         4.3587   -2.3733   51.1940 H       1  ZINC000572148596    0.1800
     47 H47         6.1629   -1.8082   52.9145 H       1  ZINC000572148596    0.1800
@<TRIPOS>BOND
     1     1     2    1
     2     1    30    1
     3     1    31    1
     4     1    32    1
     5     2     3    1
     6     2     4    1
     7     2    25    1
     8     4    24    1
     9     4     5    2
    10     5     6    1
    11     6     7    1
    12     7     8    1
    13     7    24    2
    14     8    23   ar
    15     8     9   ar
    16     9    10   ar
    17     9    33    1
    18    10    11   ar
    19    10    34    1
    20    11    12    1
    21    11    22   ar
    22    12    21    1
    23    12    13    1
    24    13    14    1
    25    13    35    1
    26    13    36    1
    27    14    15    1
    28    14    16    1
    29    14    17    1
    30    16    37    1
    31    16    38    1
    32    16    39    1
    33    17    18    1
    34    18    19    1
    35    18    20    1
    36    18    21    1
    37    20    40    1
    38    20    41    1
    39    20    42    1
    40    21    43    1
    41    21    44    1
    42    22    23   ar
    43    23    45    1
    44    25    29    1
    45    25    26    2
    46    26    27    1
    47    27    28    2
    48    27    46    1
    49    28    29    1
    50    28    47    1
@<TRIPOS>SUBSTRUCTURE
     1 ZINC000572148596        1 TEMP              0 ****  ****    0 ROOT


##########                                Name:    ZINC000291036115
##########                DOCK_Rotatable_Bonds:                   5
##########                         Heavy_Atoms:                  22
##########                    Molecular_Weight:             366.193
##########                DOCK_Rotatable_Bonds:                   5
##########                       Formal_Charge:                0.01
##########                     HBond_Acceptors:                   7
##########                        HBond_Donors:                   0
##########                         Heavy_Atoms:                  22
##########                          Grid_Score:          -31.153362
##########                     Grid_vdw_energy:          -30.115013
##########                      Grid_es_energy:           -1.038349
##########           Internal_energy_repulsive:            7.418270

@<TRIPOS>MOLECULE
ZINC000291036115
 35 37 1 0 0
SMALL
USER_CHARGES


@<TRIPOS>ATOM
      1 C1         -5.8964    2.3682   50.0796 C.3     1  <0>        -0.1500
      2 C2         -5.2139    1.8215   51.3351 C.3     1  <0>        -0.0400
      3 H3         -5.0225    0.7558   51.2097 H       1  <0>         0.0900
      4 C4         -6.1244    2.0372   52.5455 C.3     1  <0>        -0.0200
      5 C5         -7.1904    0.9723   52.5684 C.2     1  <0>         0.1900
      6 N6         -8.4870    1.1657   52.6009 N.2     1  <0>        -0.4500
      7 C7         -9.0360   -0.0621   52.6105 C.2     1  <0>         0.1500
      8 C8        -10.5087   -0.3803   52.6452 C.3     1  <0>         0.2300
      9 N9        -10.9107   -0.6822   54.0212 N.pl3   1  <0>        -0.3900
     10 C10       -11.6679    0.0837   54.8258 C.2     1  <0>         0.2600
     11 N11       -11.7992   -0.5360   55.9706 N.2     1  <0>        -0.5400
     12 C12       -11.1430   -1.6950   55.9349 C.2     1  <0>         0.2000
     13 N13       -10.5869   -1.8320   54.7598 N.2     1  <0>        -0.3100
     14 N14        -8.0635   -0.9235   52.5838 N.2     1  <0>        -0.3600
     15 O15        -6.9951   -0.3497   52.5536 O.3     1  <0>         0.0900
     16 C16        -3.9094    2.5440   51.5527 C.ar    1  <0>        -0.0900
     17 C17        -3.8586    3.6391   52.3946 C.ar    1  <0>        -0.0700
     18 C18        -2.6628    4.3026   52.5956 C.ar    1  <0>        -0.1400
     19 C19        -1.5153    3.8703   51.9536 C.ar    1  <0>         0.1300
     20 F20        -0.3460    4.5179   52.1497 F       1  <0>        -0.1200
     21 C21        -1.5669    2.7724   51.1097 C.ar    1  <0>        -0.1300
     22 Br22       -0.0006    2.1794   50.2318 Br      1  <0>        -0.0200
     23 C23        -2.7632    2.1073   50.9145 C.ar    1  <0>        -0.0500
     24 H24        -6.8399    1.8456   49.9221 H       1  <0>         0.0600
     25 H25        -6.0877    3.4339   50.2049 H       1  <0>         0.0700
     26 H26        -5.2476    2.2145   49.2172 H       1  <0>         0.0700
     27 H27        -5.5334    1.9795   53.4596 H       1  <0>         0.1200
     28 H28        -6.5931    3.0190   52.4773 H       1  <0>         0.1100
     29 H29       -11.0744    0.4773   52.2813 H       1  <0>         0.1300
     30 H30       -10.7088   -1.2435   52.0105 H       1  <0>         0.1200
     31 H31       -12.0930    1.0435   54.5717 H       1  <0>         0.2200
     32 H32       -11.0838   -2.4078   56.7440 H       1  <0>         0.2200
     33 H33        -4.7539    3.9767   52.8953 H       1  <0>         0.1400
     34 H34        -2.6238    5.1584   53.2533 H       1  <0>         0.1500
     35 H35        -2.8041    1.2516   50.2569 H       1  <0>         0.1400
@<TRIPOS>BOND
     1     1     2    1
     2     1    24    1
     3     1    25    1
     4     1    26    1
     5     2     3    1
     6     2     4    1
     7     2    16    1
     8     4     5    1
     9     4    27    1
    10     4    28    1
    11     5    15    1
    12     5     6    2
    13     6     7    1
    14     7     8    1
    15     7    14    2
    16     8     9    1
    17     8    29    1
    18     8    30    1
    19     9    13    1
    20     9    10    1
    21    10    11    2
    22    10    31    1
    23    11    12    1
    24    12    13    2
    25    12    32    1
    26    14    15    1
    27    16    23   ar
    28    16    17   ar
    29    17    18   ar
    30    17    33    1
    31    18    19   ar
    32    18    34    1
    33    19    20    1
    34    19    21   ar
    35    21    22    1
    36    21    23   ar
    37    23    35    1
@<TRIPOS>SUBSTRUCTURE
     1 <0>         1 TEMP              0 ****  ****    0 ROOT


##########                                Name:    ZINC000564088286
##########                DOCK_Rotatable_Bonds:                   6
##########                         Heavy_Atoms:                  25
##########                    Molecular_Weight:             398.934
##########                DOCK_Rotatable_Bonds:                   6
##########                       Formal_Charge:               -0.05
##########                     HBond_Acceptors:                   8
##########                        HBond_Donors:                   1
##########                         Heavy_Atoms:                  25
##########                          Grid_Score:          -31.148577
##########                     Grid_vdw_energy:          -30.775686
##########                      Grid_es_energy:           -0.372891
##########           Internal_energy_repulsive:           15.134635

@<TRIPOS>MOLECULE
ZINC000564088286
 44 46 1 0 0
SMALL
USER_CHARGES


@<TRIPOS>ATOM
      1 C1          4.0876    2.5999   53.9892 C.3     1  ZINC000564088286   -0.1600
      2 C2          2.8978    2.8195   53.0525 C.3     1  ZINC000564088286    0.1100
      3 N3          3.1194    2.0890   51.8022 N.am    1  ZINC000564088286   -1.1200
      4 S4          2.4959    2.6699   50.3822 S.o2    1  ZINC000564088286    2.7000
      5 O5          2.9475    4.0121   50.2651 O.2     1  ZINC000564088286   -0.9600
      6 O6          2.7472    1.6766   49.3976 O.2     1  ZINC000564088286   -0.9600
      7 C7          0.7463    2.7487   50.5745 C.ar    1  ZINC000564088286   -0.6800
      8 C8         -0.0745    2.0131   49.7399 C.ar    1  ZINC000564088286   -0.0200
      9 C9         -1.4473    2.0749   49.8908 C.ar    1  ZINC000564088286   -0.1300
     10 C10        -1.9992    2.8718   50.8763 C.ar    1  ZINC000564088286   -0.0100
     11 C11        -3.4957    2.9396   51.0403 C.3     1  ZINC000564088286   -0.1100
     12 C12        -4.0494    1.5449   51.1788 C.2     1  ZINC000564088286    0.5200
     13 O13        -3.3011    0.6131   51.3857 O.2     1  ZINC000564088286   -0.5200
     14 N14        -5.3762    1.3329   51.0730 N.am    1  ZINC000564088286   -0.6200
     15 C15        -5.9374   -0.0200   51.2050 C.3     1  ZINC000564088286    0.1200
     16 C16        -6.8214   -0.0619   52.4553 C.3     1  ZINC000564088286   -0.0700
     17 C17        -7.7040    1.1680   52.4787 C.2     1  ZINC000564088286   -0.1600
     18 C18        -7.4857    2.2908   51.7691 C.2     1  ZINC000564088286   -0.1200
     19 C19        -8.4414    3.2812   51.9759 C.2     1  ZINC000564088286   -0.1100
     20 C20        -9.4167    2.9707   52.8258 C.2     1  ZINC000564088286   -0.1500
     21 Cl21      -10.7336    4.0140   53.2625 Cl      1  ZINC000564088286   -0.0100
     22 S22        -9.1679    1.3427   53.4382 S.3     1  ZINC000564088286    0.1600
     23 C23        -6.3011    2.4488   50.8288 C.3     1  ZINC000564088286    0.1700
     24 C24        -1.1783    3.6063   51.7115 C.ar    1  ZINC000564088286   -0.1300
     25 C25         0.1945    3.5415   51.5633 C.ar    1  ZINC000564088286   -0.0200
     26 H26         4.1899    1.5361   54.2033 H       1  ZINC000564088286    0.0600
     27 H27         4.9975    2.9638   53.5122 H       1  ZINC000564088286    0.0600
     28 H28         3.9227    3.1435   54.9195 H       1  ZINC000564088286    0.0700
     29 H29         1.9878    2.4557   53.5296 H       1  ZINC000564088286    0.0800
     30 H30         2.7954    3.8834   52.8386 H       1  ZINC000564088286    0.0700
     31 H31         3.6314    1.2651   51.8060 H       1  ZINC000564088286    0.4200
     32 H32         0.3567    1.3905   48.9701 H       1  ZINC000564088286    0.1400
     33 H33        -2.0885    1.5008   49.2384 H       1  ZINC000564088286    0.1300
     34 H34        -3.7377    3.5169   51.9326 H       1  ZINC000564088286    0.1100
     35 H35        -3.9356    3.4199   50.1663 H       1  ZINC000564088286    0.1100
     36 H36        -6.5363   -0.2553   50.3252 H       1  ZINC000564088286    0.0800
     37 H37        -5.1283   -0.7437   51.3044 H       1  ZINC000564088286    0.1100
     38 H38        -7.4435   -0.9567   52.4320 H       1  ZINC000564088286    0.0900
     39 H39        -6.1930   -0.0765   53.3458 H       1  ZINC000564088286    0.0900
     40 H40        -8.3943    4.2391   51.4793 H       1  ZINC000564088286    0.1500
     41 H41        -5.7992    3.3966   51.0232 H       1  ZINC000564088286    0.1000
     42 H42        -6.6438    2.4170   49.7946 H       1  ZINC000564088286    0.0900
     43 H43        -1.6096    4.2286   52.4817 H       1  ZINC000564088286    0.1300
     44 H44         0.8358    4.1153   52.2158 H       1  ZINC000564088286    0.1400
@<TRIPOS>BOND
     1     1     2    1
     2     1    26    1
     3     1    27    1
     4     1    28    1
     5     2     3    1
     6     2    29    1
     7     2    30    1
     8     3     4   am
     9     3    31    1
    10     4     5    2
    11     4     6    2
    12     4     7    1
    13     7    25   ar
    14     7     8   ar
    15     8     9   ar
    16     8    32    1
    17     9    10   ar
    18     9    33    1
    19    10    11    1
    20    10    24   ar
    21    11    12    1
    22    11    34    1
    23    11    35    1
    24    12    13    2
    25    12    14   am
    26    14    23    1
    27    14    15    1
    28    15    16    1
    29    15    36    1
    30    15    37    1
    31    16    17    1
    32    16    38    1
    33    16    39    1
    34    17    22    1
    35    17    18    2
    36    18    19    1
    37    18    23    1
    38    19    20    2
    39    19    40    1
    40    20    21    1
    41    20    22    1
    42    23    41    1
    43    23    42    1
    44    24    25   ar
    45    24    43    1
    46    25    44    1
@<TRIPOS>SUBSTRUCTURE
     1 ZINC000564088286        1 TEMP              0 ****  ****    0 ROOT


##########                                Name:    ZINC001345266033
##########                DOCK_Rotatable_Bonds:                   4
##########                         Heavy_Atoms:                  29
##########                    Molecular_Weight:               389.5
##########                DOCK_Rotatable_Bonds:                   4
##########                       Formal_Charge:          -0.0100001
##########                     HBond_Acceptors:                   6
##########                        HBond_Donors:                   0
##########                         Heavy_Atoms:                  29
##########                          Grid_Score:          -31.143909
##########                     Grid_vdw_energy:          -30.556942
##########                      Grid_es_energy:           -0.586967
##########           Internal_energy_repulsive:           14.509382

@<TRIPOS>MOLECULE
ZINC001345266033
 56 61 1 0 0
SMALL
USER_CHARGES


@<TRIPOS>ATOM
      1 C1         -6.9817    0.5801   52.3231 C.ar    1  ZINC001345266033   -0.1100
      2 C2         -5.7471    0.0785   51.9190 C.ar    1  ZINC001345266033   -0.0900
      3 C3         -4.7545    0.9140   51.4961 C.ar    1  ZINC001345266033   -0.1100
      4 C4         -4.9825    2.2919   51.4684 C.ar    1  ZINC001345266033    0.0000
      5 C5         -6.2390    2.8073   51.8787 C.ar    1  ZINC001345266033   -0.1100
      6 C6         -7.2367    1.9185   52.3082 C.ar    1  ZINC001345266033   -0.0900
      7 C7         -6.4417    4.1963   51.8404 C.ar    1  ZINC001345266033    0.1700
      8 N8         -5.4922    5.0046   51.4347 N.ar    1  ZINC001345266033   -0.4800
      9 C9         -4.2988    4.5944   51.0387 C.ar    1  ZINC001345266033    0.0900
     10 C10        -3.9660    3.2460   51.0268 C.ar    1  ZINC001345266033   -0.0700
     11 C11        -2.6338    2.7923   50.5845 C.2     1  ZINC001345266033    0.2300
     12 N12        -2.3796    1.7962   49.7662 N.2     1  ZINC001345266033   -0.2600
     13 N13        -1.1108    1.6798   49.5990 N.2     1  ZINC001345266033   -0.3000
     14 C14        -0.4772    2.5935   50.2995 C.2     1  ZINC001345266033    0.3600
     15 N15         0.8932    2.7728   50.3650 N.3     1  ZINC001345266033   -0.4600
     16 C16         1.5202    1.7364   51.1941 C.3     1  ZINC001345266033    0.0600
     17 C17         2.9921    2.0798   51.4319 C.3     1  ZINC001345266033   -0.1100
     18 C18         3.7280    2.1036   50.0869 C.3     1  ZINC001345266033   -0.0800
     19 C19         2.9901    3.0614   49.1455 C.3     1  ZINC001345266033   -0.1300
     20 C20         3.4759    4.5085   49.0799 C.3     1  ZINC001345266033   -0.1600
     21 C21         3.7356    3.5587   47.9084 C.3     1  ZINC001345266033   -0.1700
     22 C22         1.4851    2.8074   49.0194 C.3     1  ZINC001345266033    0.1100
     23 N23        -1.4223    3.3362   50.9461 N.pl3   1  ZINC001345266033   -0.4600
     24 C24        -1.1941    4.4706   51.8446 C.3     1  ZINC001345266033    0.1000
     25 C25        -0.8086    3.9529   53.2318 C.3     1  ZINC001345266033   -0.1400
     26 H26        -0.1285    3.1054   53.1463 H       1  ZINC001345266033    0.1000
     27 C27        -2.0726    3.5544   54.0319 C.3     1  ZINC001345266033   -0.1500
     28 C28        -1.7370    4.0786   55.4515 C.3     1  ZINC001345266033    0.0500
     29 O29        -1.0309    5.3120   55.1968 O.3     1  ZINC001345266033   -0.3700
     30 C30        -0.1672    5.0770   54.0681 C.3     1  ZINC001345266033    0.0300
     31 H31        -7.7515   -0.1035   52.6494 H       1  ZINC001345266033    0.1300
     32 H32        -5.5724   -0.9870   51.9410 H       1  ZINC001345266033    0.1300
     33 H33        -3.8008    0.5135   51.1858 H       1  ZINC001345266033    0.1600
     34 H34        -8.1994    2.2926   52.6239 H       1  ZINC001345266033    0.1400
     35 H35        -7.3927    4.6045   52.1492 H       1  ZINC001345266033    0.1700
     36 H36        -3.5686    5.3225   50.7177 H       1  ZINC001345266033    0.1700
     37 H37         1.0031    1.6768   52.1517 H       1  ZINC001345266033    0.0700
     38 H38         1.4504    0.7748   50.6859 H       1  ZINC001345266033    0.0500
     39 H39         3.0658    3.0592   51.9047 H       1  ZINC001345266033    0.0800
     40 H40         3.4416    1.3272   52.0796 H       1  ZINC001345266033    0.0800
     41 H41         4.7504    2.4511   50.2350 H       1  ZINC001345266033    0.0700
     42 H42         3.7371    1.1021   49.6568 H       1  ZINC001345266033    0.0700
     43 H43         2.7247    5.2859   48.9408 H       1  ZINC001345266033    0.0900
     44 H44         4.3267    4.7826   49.7038 H       1  ZINC001345266033    0.0900
     45 H45         4.7571    3.2080   47.7614 H       1  ZINC001345266033    0.1000
     46 H46         3.1552    3.7113   46.9984 H       1  ZINC001345266033    0.1000
     47 H47         1.3165    1.8525   48.5217 H       1  ZINC001345266033    0.0600
     48 H48         1.0270    3.6089   48.4396 H       1  ZINC001345266033    0.0800
     49 H49        -0.3879    5.0896   51.4509 H       1  ZINC001345266033    0.1100
     50 H50        -2.1051    5.0644   51.9187 H       1  ZINC001345266033    0.1100
     51 H51        -2.9576    4.0503   53.6333 H       1  ZINC001345266033    0.0800
     52 H52        -2.2042    2.4724   54.0379 H       1  ZINC001345266033    0.0900
     53 H53        -2.6496    4.2684   56.0163 H       1  ZINC001345266033    0.1000
     54 H54        -1.0970    3.3722   55.9801 H       1  ZINC001345266033    0.0600
     55 H55         0.8193    4.7688   54.4143 H       1  ZINC001345266033    0.0600
     56 H56        -0.0853    5.9839   53.4689 H       1  ZINC001345266033    0.0900
@<TRIPOS>BOND
     1     1     6   ar
     2     1     2   ar
     3     1    31    1
     4     2     3   ar
     5     2    32    1
     6     3     4   ar
     7     3    33    1
     8     4    10   ar
     9     4     5   ar
    10     5     6   ar
    11     5     7   ar
    12     6    34    1
    13     7     8   ar
    14     7    35    1
    15     8     9   ar
    16     9    10   ar
    17     9    36    1
    18    10    11    1
    19    11    23    1
    20    11    12    2
    21    12    13    1
    22    13    14    2
    23    14    15    1
    24    14    23    1
    25    15    22    1
    26    15    16    1
    27    16    17    1
    28    16    37    1
    29    16    38    1
    30    17    18    1
    31    17    39    1
    32    17    40    1
    33    18    19    1
    34    18    41    1
    35    18    42    1
    36    19    21    1
    37    19    20    1
    38    19    22    1
    39    20    21    1
    40    20    43    1
    41    20    44    1
    42    21    45    1
    43    21    46    1
    44    22    47    1
    45    22    48    1
    46    23    24    1
    47    24    25    1
    48    24    49    1
    49    24    50    1
    50    25    26    1
    51    25    30    1
    52    25    27    1
    53    27    28    1
    54    27    51    1
    55    27    52    1
    56    28    29    1
    57    28    53    1
    58    28    54    1
    59    29    30    1
    60    30    55    1
    61    30    56    1
@<TRIPOS>SUBSTRUCTURE
     1 ZINC001345266033        1 TEMP              0 ****  ****    0 ROOT


##########                                Name:    ZINC000549659617
##########                DOCK_Rotatable_Bonds:                   9
##########                         Heavy_Atoms:                  28
##########                    Molecular_Weight:              418.48
##########                DOCK_Rotatable_Bonds:                   9
##########                       Formal_Charge:          0.00999956
##########                     HBond_Acceptors:                   9
##########                        HBond_Donors:                   1
##########                         Heavy_Atoms:                  28
##########                          Grid_Score:          -31.133875
##########                     Grid_vdw_energy:          -29.240490
##########                      Grid_es_energy:           -1.893385
##########           Internal_energy_repulsive:           23.772375

@<TRIPOS>MOLECULE
ZINC000549659617
 53 55 1 0 0
SMALL
USER_CHARGES


@<TRIPOS>ATOM
      1 C1         -8.7425    5.6105   50.2834 C.3     1  ZINC000549659617   -0.1500
      2 C2         -8.8015    4.1373   50.6924 C.3     1  ZINC000549659617   -0.1500
      3 C3         -8.4419    4.0045   52.1736 C.3     1  ZINC000549659617    0.1100
      4 N4         -7.8269    2.6962   52.4114 N.am    1  ZINC000549659617   -0.6100
      5 C5         -8.5980    1.6357   52.7231 C.2     1  ZINC000549659617    0.7100
      6 O6         -8.0879    0.5496   52.9189 O.2     1  ZINC000549659617   -0.5700
      7 N7         -9.9348    1.7792   52.8178 N.am    1  ZINC000549659617   -0.7400
      8 C8        -10.7732    0.6261   53.1551 C.3     1  ZINC000549659617    0.2300
      9 H9        -10.3714   -0.2674   52.6773 H       1  ZINC000549659617    0.1100
     10 C10       -10.7856    0.4341   54.6498 C.ar    1  ZINC000549659617   -0.0900
     11 C11       -10.8597    1.5315   55.4868 C.ar    1  ZINC000549659617   -0.0800
     12 C12       -10.8711    1.3553   56.8581 C.ar    1  ZINC000549659617   -0.1100
     13 C13       -10.8089    0.0819   57.3918 C.ar    1  ZINC000549659617   -0.0700
     14 C14       -10.7356   -1.0159   56.5544 C.ar    1  ZINC000549659617   -0.1800
     15 C15       -10.6673   -2.4042   57.1364 C.3     1  ZINC000549659617    0.5100
     16 F16        -9.9067   -2.3809   58.3103 F       1  ZINC000549659617   -0.1800
     17 F17       -11.9604   -2.8521   57.4273 F       1  ZINC000549659617   -0.1700
     18 F18       -10.0714   -3.2686   56.2118 F       1  ZINC000549659617   -0.1700
     19 C19       -10.7286   -0.8400   55.1836 C.ar    1  ZINC000549659617   -0.0500
     20 C20       -12.2002    0.8711   52.6605 C.3     1  ZINC000549659617   -0.1700
     21 C21       -12.7080    0.0007   51.5093 C.3     1  ZINC000549659617   -0.1700
     22 C22       -13.2377   -0.2213   52.9274 C.3     1  ZINC000549659617   -0.1800
     23 C23        -6.3736    2.5406   52.3101 C.3     1  ZINC000549659617    0.1700
     24 H24        -5.9792    2.1127   53.2317 H       1  ZINC000549659617    0.1100
     25 C25        -5.7154    3.9047   52.0385 C.3     1  ZINC000549659617   -0.1400
     26 C26        -4.2554    3.6709   51.6019 C.3     1  ZINC000549659617   -0.5900
     27 S27        -4.2516    2.0177   50.8191 S.o2    1  ZINC000549659617    2.3900
     28 O28        -4.0209    2.1578   49.4239 O.2     1  ZINC000549659617   -0.9300
     29 O29        -3.4425    1.1357   51.5851 O.2     1  ZINC000549659617   -0.9400
     30 C30        -6.0198    1.6287   51.1072 C.3     1  ZINC000549659617   -0.6100
     31 H31        -8.9986    5.7051   49.2282 H       1  ZINC000549659617    0.0600
     32 H32        -9.4513    6.1824   50.8822 H       1  ZINC000549659617    0.0600
     33 H33        -7.7354    5.9933   50.4486 H       1  ZINC000549659617    0.0600
     34 H34        -9.8087    3.7544   50.5273 H       1  ZINC000549659617    0.0700
     35 H35        -8.0926    3.5653   50.0937 H       1  ZINC000549659617    0.0700
     36 H36        -7.7398    4.7915   52.4491 H       1  ZINC000549659617    0.0800
     37 H37        -9.3453    4.0961   52.7766 H       1  ZINC000549659617    0.0900
     38 H38       -10.3417    2.6460   52.6628 H       1  ZINC000549659617    0.4000
     39 H39       -10.9083    2.5265   55.0698 H       1  ZINC000549659617    0.1300
     40 H40       -10.9283    2.2128   57.5122 H       1  ZINC000549659617    0.1400
     41 H41       -10.8171   -0.0556   58.4629 H       1  ZINC000549659617    0.1400
     42 H42       -10.6714   -1.6974   54.5295 H       1  ZINC000549659617    0.1400
     43 H43       -12.5390    1.9065   52.6964 H       1  ZINC000549659617    0.1100
     44 H44       -13.3810    0.4636   50.7874 H       1  ZINC000549659617    0.0900
     45 H45       -12.0255   -0.7464   51.1041 H       1  ZINC000549659617    0.0900
     46 H46       -12.9035   -1.1145   53.4552 H       1  ZINC000549659617    0.1200
     47 H47       -14.2590    0.0954   53.1385 H       1  ZINC000549659617    0.0900
     48 H48        -6.2565    4.4215   51.2459 H       1  ZINC000549659617    0.1100
     49 H49        -5.7342    4.5080   52.9461 H       1  ZINC000549659617    0.0900
     50 H50        -3.9489    4.4308   50.8830 H       1  ZINC000549659617    0.1400
     51 H51        -3.5949    3.6805   52.4688 H       1  ZINC000549659617    0.1400
     52 H52        -6.1476    0.5777   51.3664 H       1  ZINC000549659617    0.1400
     53 H53        -6.6202    1.8891   50.2355 H       1  ZINC000549659617    0.1600
@<TRIPOS>BOND
     1     1     2    1
     2     1    31    1
     3     1    32    1
     4     1    33    1
     5     2     3    1
     6     2    34    1
     7     2    35    1
     8     3     4    1
     9     3    36    1
    10     3    37    1
    11     4     5   am
    12     4    23    1
    13     5     6    2
    14     5     7   am
    15     7     8    1
    16     7    38    1
    17     8     9    1
    18     8    10    1
    19     8    20    1
    20    10    19   ar
    21    10    11   ar
    22    11    12   ar
    23    11    39    1
    24    12    13   ar
    25    12    40    1
    26    13    14   ar
    27    13    41    1
    28    14    15    1
    29    14    19   ar
    30    15    16    1
    31    15    17    1
    32    15    18    1
    33    19    42    1
    34    20    22    1
    35    20    21    1
    36    20    43    1
    37    21    22    1
    38    21    44    1
    39    21    45    1
    40    22    46    1
    41    22    47    1
    42    23    24    1
    43    23    30    1
    44    23    25    1
    45    25    26    1
    46    25    48    1
    47    25    49    1
    48    26    27    1
    49    26    50    1
    50    26    51    1
    51    27    28    2
    52    27    29    2
    53    27    30    1
    54    30    52    1
    55    30    53    1
@<TRIPOS>SUBSTRUCTURE
     1 ZINC000549659617        1 TEMP              0 ****  ****    0 ROOT


##########                                Name:    ZINC000655235556
##########                DOCK_Rotatable_Bonds:                   6
##########                         Heavy_Atoms:                  23
##########                    Molecular_Weight:             336.778
##########                DOCK_Rotatable_Bonds:                   6
##########                       Formal_Charge:         -0.00999996
##########                     HBond_Acceptors:                   8
##########                        HBond_Donors:                   2
##########                         Heavy_Atoms:                  23
##########                          Grid_Score:          -31.121536
##########                     Grid_vdw_energy:          -30.835438
##########                      Grid_es_energy:           -0.286098
##########           Internal_energy_repulsive:            6.269363

@<TRIPOS>MOLECULE
ZINC000655235556
 40 42 1 0 0
SMALL
USER_CHARGES


@<TRIPOS>ATOM
      1 C1          0.3674    2.3844   50.2759 C.3     1  ZINC000655235556    0.0200
      2 O2         -0.8605    3.0815   50.4961 O.3     1  ZINC000655235556   -0.2700
      3 C3         -1.1876    3.3616   51.7825 C.ar    1  ZINC000655235556    0.2000
      4 C4         -0.2714    3.9876   52.6131 C.ar    1  ZINC000655235556   -0.2100
      5 C5         -0.6065    4.2728   53.9237 C.ar    1  ZINC000655235556    0.0300
      6 Cl6         0.5460    5.0569   54.9584 Cl      1  ZINC000655235556   -0.0500
      7 C7         -1.8583    3.9364   54.4162 C.ar    1  ZINC000655235556   -0.1600
      8 C8         -2.7803    3.3138   53.6036 C.ar    1  ZINC000655235556   -0.0300
      9 C9         -2.4560    3.0245   52.2759 C.ar    1  ZINC000655235556   -0.1700
     10 C10        -3.4388    2.3586   51.4009 C.2     1  ZINC000655235556    0.5700
     11 O11        -3.1778    1.2800   50.9037 O.2     1  ZINC000655235556   -0.5100
     12 N12        -4.6263    2.9455   51.1523 N.am    1  ZINC000655235556   -0.7300
     13 C13        -5.6034    2.2832   50.2845 C.3     1  ZINC000655235556    0.2100
     14 C14        -6.4294    1.3221   51.1000 C.2     1  ZINC000655235556    0.2600
     15 N15        -7.4344    1.6391   51.8753 N.2     1  ZINC000655235556   -0.5100
     16 C16        -7.9319    0.5407   52.4422 C.2     1  ZINC000655235556    0.2200
     17 C17        -9.0958    0.4991   53.3987 C.3     1  ZINC000655235556    0.1700
     18 H18        -8.7354    0.5880   54.4235 H       1  ZINC000655235556    0.1100
     19 C19        -9.8669   -0.8273   53.2279 C.3     1  ZINC000655235556   -0.1400
     20 C20       -11.3443   -0.3704   53.3710 C.3     1  ZINC000655235556   -0.1500
     21 C21       -11.2813    1.0360   52.7235 C.3     1  ZINC000655235556    0.0500
     22 O22       -10.0021    1.5694   53.1078 O.3     1  ZINC000655235556   -0.3700
     23 N23        -7.2471   -0.4951   52.0337 N.2     1  ZINC000655235556   -0.2800
     24 N24        -6.2657   -0.0111   51.1532 N.pl3   1  ZINC000655235556   -0.4700
     25 H25         1.1958    2.9753   50.6668 H       1  ZINC000655235556    0.0600
     26 H26         0.3352    1.4218   50.7863 H       1  ZINC000655235556    0.0600
     27 H27         0.5077    2.2245   49.2069 H       1  ZINC000655235556    0.1100
     28 H28         0.7054    4.2525   52.2362 H       1  ZINC000655235556    0.1500
     29 H29        -2.1113    4.1630   55.4414 H       1  ZINC000655235556    0.1400
     30 H30        -3.7540    3.0533   53.9915 H       1  ZINC000655235556    0.1400
     31 H31        -4.8341    3.8064   51.5480 H       1  ZINC000655235556    0.4000
     32 H32        -6.2557    3.0316   49.8344 H       1  ZINC000655235556    0.1000
     33 H33        -5.0807    1.7373   49.4991 H       1  ZINC000655235556    0.1100
     34 H34        -9.6873   -1.2563   52.2420 H       1  ZINC000655235556    0.0800
     35 H35        -9.6016   -1.5342   54.0139 H       1  ZINC000655235556    0.0900
     36 H36       -12.0143   -1.0281   52.8173 H       1  ZINC000655235556    0.0900
     37 H37       -11.6363   -0.3075   54.4193 H       1  ZINC000655235556    0.0800
     38 H38       -11.3483    0.9562   51.6385 H       1  ZINC000655235556    0.0600
     39 H39       -12.0838    1.6656   53.1077 H       1  ZINC000655235556    0.0900
     40 H40        -5.5984   -0.5342   50.6823 H       1  ZINC000655235556    0.4400
@<TRIPOS>BOND
     1     1     2    1
     2     1    25    1
     3     1    26    1
     4     1    27    1
     5     2     3    1
     6     3     9   ar
     7     3     4   ar
     8     4     5   ar
     9     4    28    1
    10     5     6    1
    11     5     7   ar
    12     7     8   ar
    13     7    29    1
    14     8     9   ar
    15     8    30    1
    16     9    10    1
    17    10    11    2
    18    10    12   am
    19    12    13    1
    20    12    31    1
    21    13    14    1
    22    13    32    1
    23    13    33    1
    24    14    24    1
    25    14    15    2
    26    15    16    1
    27    16    17    1
    28    16    23    2
    29    17    18    1
    30    17    22    1
    31    17    19    1
    32    19    20    1
    33    19    34    1
    34    19    35    1
    35    20    21    1
    36    20    36    1
    37    20    37    1
    38    21    22    1
    39    21    38    1
    40    21    39    1
    41    23    24    1
    42    24    40    1
@<TRIPOS>SUBSTRUCTURE
     1 ZINC000655235556        1 TEMP              0 ****  ****    0 ROOT


##########                                Name:    ZINC000482187991
##########                DOCK_Rotatable_Bonds:                  11
##########                         Heavy_Atoms:                  29
##########                    Molecular_Weight:             407.414
##########                DOCK_Rotatable_Bonds:                  11
##########                       Formal_Charge:           0.0299996
##########                     HBond_Acceptors:                   8
##########                        HBond_Donors:                   1
##########                         Heavy_Atoms:                  29
##########                          Grid_Score:          -31.112915
##########                     Grid_vdw_energy:          -30.335142
##########                      Grid_es_energy:           -0.777774
##########           Internal_energy_repulsive:           10.616357

@<TRIPOS>MOLECULE
ZINC000482187991
 52 53 1 0 0
SMALL
USER_CHARGES


@<TRIPOS>ATOM
      1 C1         -2.4905    3.3326   55.7239 C.3     1  ZINC000482187991    0.0200
      2 O2         -2.4159    4.2517   54.6321 O.3     1  ZINC000482187991   -0.3000
      3 C3         -2.7403    3.7748   53.4004 C.ar    1  ZINC000482187991    0.1400
      4 C4         -4.0499    3.4448   53.1113 C.ar    1  ZINC000482187991   -0.1700
      5 C5         -4.3828    2.9544   51.8429 C.ar    1  ZINC000482187991   -0.1000
      6 C6         -5.7742    2.6027   51.5315 C.2     1  ZINC000482187991    0.4000
      7 O7         -6.5590    3.4670   51.2020 O.2     1  ZINC000482187991   -0.4500
      8 C8         -6.2271    1.1682   51.6212 C.3     1  ZINC000482187991   -0.1500
      9 C9         -6.9348    0.9394   52.9582 C.3     1  ZINC000482187991   -0.1300
     10 C10        -8.2099    0.1704   52.7266 C.2     1  ZINC000482187991    0.5200
     11 O11        -8.1632   -0.9881   52.3705 O.2     1  ZINC000482187991   -0.5200
     12 N12        -9.4022    0.7699   52.9149 N.am    1  ZINC000482187991   -0.7200
     13 C13       -10.6418    0.0228   52.6881 C.3     1  ZINC000482187991    0.1500
     14 H14       -10.4546   -0.7854   51.9810 H       1  ZINC000482187991    0.1300
     15 C15       -11.6904    0.9482   52.1269 C.ar    1  ZINC000482187991   -0.1100
     16 C16       -12.5869    0.4851   51.1821 C.ar    1  ZINC000482187991   -0.1000
     17 C17       -13.5487    1.3340   50.6672 C.ar    1  ZINC000482187991   -0.1200
     18 C18       -13.6143    2.6461   51.0975 C.ar    1  ZINC000482187991   -0.1100
     19 C19       -12.7184    3.1090   52.0430 C.ar    1  ZINC000482187991   -0.1200
     20 C20       -11.7593    2.2589   52.5610 C.ar    1  ZINC000482187991   -0.1000
     21 C21       -11.1344   -0.5625   54.0131 C.3     1  ZINC000482187991    0.2500
     22 F22       -10.3769   -1.6943   54.3331 F       1  ZINC000482187991   -0.1900
     23 F23       -10.9955    0.3931   55.0253 F       1  ZINC000482187991   -0.2000
     24 C24        -3.3859    2.8004   50.8719 C.ar    1  ZINC000482187991   -0.1900
     25 C25        -2.0784    3.1325   51.1684 C.ar    1  ZINC000482187991    0.1400
     26 O26        -1.1094    2.9837   50.2257 O.3     1  ZINC000482187991   -0.3000
     27 C27        -1.1386    1.7846   49.4490 C.3     1  ZINC000482187991    0.0200
     28 C28        -1.7519    3.6252   52.4300 C.ar    1  ZINC000482187991    0.0600
     29 O29        -0.4650    3.9512   52.7177 O.3     1  ZINC000482187991   -0.3100
     30 C30        -0.0165    5.2449   52.3086 C.3     1  ZINC000482187991    0.0400
     31 H31        -2.2071    3.8400   56.6460 H       1  ZINC000482187991    0.1100
     32 H32        -3.5100    2.9575   55.8141 H       1  ZINC000482187991    0.0600
     33 H33        -1.8113    2.4992   55.5443 H       1  ZINC000482187991    0.0600
     34 H34        -4.8161    3.5646   53.8630 H       1  ZINC000482187991    0.1500
     35 H35        -6.9157    0.9528   50.8041 H       1  ZINC000482187991    0.1100
     36 H36        -5.3620    0.5090   51.5505 H       1  ZINC000482187991    0.1100
     37 H37        -6.2830    0.3708   53.6216 H       1  ZINC000482187991    0.1000
     38 H38        -7.1684    1.9011   53.4150 H       1  ZINC000482187991    0.1000
     39 H39        -9.4395    1.6961   53.2009 H       1  ZINC000482187991    0.4100
     40 H40       -12.5357   -0.5401   50.8459 H       1  ZINC000482187991    0.1200
     41 H41       -14.2487    0.9723   49.9286 H       1  ZINC000482187991    0.1300
     42 H42       -14.3653    3.3096   50.6948 H       1  ZINC000482187991    0.1300
     43 H43       -12.7694    4.1342   52.3788 H       1  ZINC000482187991    0.1300
     44 H44       -11.0593    2.6206   53.2996 H       1  ZINC000482187991    0.1300
     45 H45       -12.1837   -0.8421   53.9190 H       1  ZINC000482187991    0.1200
     46 H46        -3.6389    2.4221   49.8925 H       1  ZINC000482187991    0.1500
     47 H47        -1.0407    0.9221   50.1084 H       1  ZINC000482187991    0.0600
     48 H48        -2.0838    1.7240   48.9094 H       1  ZINC000482187991    0.0600
     49 H49        -0.3135    1.7929   48.7367 H       1  ZINC000482187991    0.1100
     50 H50        -0.1065    5.3351   51.2261 H       1  ZINC000482187991    0.0500
     51 H51        -0.6268    6.0097   52.7889 H       1  ZINC000482187991    0.0500
     52 H52         1.0259    5.3766   52.5988 H       1  ZINC000482187991    0.1000
@<TRIPOS>BOND
     1     1     2    1
     2     1    31    1
     3     1    32    1
     4     1    33    1
     5     2     3    1
     6     3    28   ar
     7     3     4   ar
     8     4     5   ar
     9     4    34    1
    10     5     6    1
    11     5    24   ar
    12     6     7    2
    13     6     8    1
    14     8     9    1
    15     8    35    1
    16     8    36    1
    17     9    10    1
    18     9    37    1
    19     9    38    1
    20    10    11    2
    21    10    12   am
    22    12    13    1
    23    12    39    1
    24    13    14    1
    25    13    15    1
    26    13    21    1
    27    15    20   ar
    28    15    16   ar
    29    16    17   ar
    30    16    40    1
    31    17    18   ar
    32    17    41    1
    33    18    19   ar
    34    18    42    1
    35    19    20   ar
    36    19    43    1
    37    20    44    1
    38    21    22    1
    39    21    23    1
    40    21    45    1
    41    24    25   ar
    42    24    46    1
    43    25    26    1
    44    25    28   ar
    45    26    27    1
    46    27    47    1
    47    27    48    1
    48    27    49    1
    49    28    29    1
    50    29    30    1
    51    30    50    1
    52    30    51    1
    53    30    52    1
@<TRIPOS>SUBSTRUCTURE
     1 ZINC000482187991        1 TEMP              0 ****  ****    0 ROOT


##########                                Name:    ZINC000880838037
##########                DOCK_Rotatable_Bonds:                   9
##########                         Heavy_Atoms:                  24
##########                    Molecular_Weight:             365.477
##########                DOCK_Rotatable_Bonds:                   9
##########                       Formal_Charge:           0.0200001
##########                     HBond_Acceptors:                   8
##########                        HBond_Donors:                   3
##########                         Heavy_Atoms:                  24
##########                          Grid_Score:          -31.073505
##########                     Grid_vdw_energy:          -29.997391
##########                      Grid_es_energy:           -1.076115
##########           Internal_energy_repulsive:           10.951694

@<TRIPOS>MOLECULE
ZINC000880838037
 43 44 1 0 0
SMALL
USER_CHARGES


@<TRIPOS>ATOM
      1 C1        -10.5788    0.9329   53.2835 C.3     1  ZINC000880838037    0.0300
      2 O2         -9.3580    0.6700   53.9782 O.3     1  ZINC000880838037   -0.3100
      3 C3         -8.2509    0.4542   53.2202 C.ar    1  ZINC000880838037    0.1400
      4 C4         -8.1793   -0.6613   52.3977 C.ar    1  ZINC000880838037   -0.2200
      5 C5         -7.0540   -0.8821   51.6262 C.ar    1  ZINC000880838037   -0.0700
      6 C6         -5.9971    0.0059   51.6717 C.ar    1  ZINC000880838037   -0.1500
      7 C7         -6.0631    1.1240   52.4937 C.ar    1  ZINC000880838037    0.1800
      8 N8         -4.9924    2.0237   52.5397 N.am    1  ZINC000880838037   -0.6700
      9 C9         -4.7976    2.8919   51.5274 C.2     1  ZINC000880838037    0.5200
     10 O10        -5.5504    2.8933   50.5765 O.2     1  ZINC000880838037   -0.4900
     11 C11        -3.6445    3.8608   51.5771 C.3     1  ZINC000880838037   -0.0600
     12 C12        -2.3979    3.1846   51.0672 C.2     1  ZINC000880838037    0.1000
     13 C13        -2.4162    2.2926   50.0763 C.2     1  ZINC000880838037   -0.2600
     14 S14        -0.7630    1.7528   49.7952 S.3     1  ZINC000880838037    0.1300
     15 C15        -0.2039    2.7815   51.0411 C.2     1  ZINC000880838037    0.0100
     16 S16         1.4786    2.9414   51.5393 S.3     1  ZINC000880838037    0.1000
     17 C17         2.2434    1.7002   50.4666 C.3     1  ZINC000880838037   -0.1500
     18 H18         1.6576    0.7815   50.4990 H       1  ZINC000880838037    0.1200
     19 C19         3.6665    1.4151   50.9505 C.3     1  ZINC000880838037   -0.1500
     20 C20         2.2880    2.2178   49.0519 C.2     1  ZINC000880838037    0.5400
     21 N21         2.5002    3.5284   48.8203 N.am    1  ZINC000880838037   -0.8400
     22 O22         2.1331    1.4549   48.1220 O.2     1  ZINC000880838037   -0.5200
     23 N23        -1.1985    3.4319   51.5622 N.2     1  ZINC000880838037   -0.4200
     24 C24        -7.1948    1.3509   53.2638 C.ar    1  ZINC000880838037   -0.1500
     25 C25        -7.2699    2.5628   54.1566 C.3     1  ZINC000880838037   -0.1000
     26 H26       -10.8227    0.0848   52.6438 H       1  ZINC000880838037    0.0600
     27 H27       -11.3815    1.0867   54.0048 H       1  ZINC000880838037    0.1000
     28 H28       -10.4635    1.8279   52.6721 H       1  ZINC000880838037    0.0600
     29 H29        -9.0039   -1.3578   52.3606 H       1  ZINC000880838037    0.1300
     30 H30        -7.0008   -1.7510   50.9870 H       1  ZINC000880838037    0.1300
     31 H31        -5.1187   -0.1692   51.0682 H       1  ZINC000880838037    0.1400
     32 H32        -4.3904    2.0225   53.3003 H       1  ZINC000880838037    0.4100
     33 H33        -3.8697    4.7259   50.9534 H       1  ZINC000880838037    0.1200
     34 H34        -3.4869    4.1855   52.6056 H       1  ZINC000880838037    0.1200
     35 H35        -3.2920    1.9587   49.5398 H       1  ZINC000880838037    0.1800
     36 H36         4.2523    2.3338   50.9181 H       1  ZINC000880838037    0.0900
     37 H37         3.6343    1.0407   51.9737 H       1  ZINC000880838037    0.0800
     38 H38         4.1270    0.6676   50.3046 H       1  ZINC000880838037    0.0800
     39 H39         2.5301    3.8614   47.9097 H       1  ZINC000880838037    0.4000
     40 H40         2.6229    4.1388   49.5642 H       1  ZINC000880838037    0.4100
     41 H41        -7.7029    3.3957   53.6028 H       1  ZINC000880838037    0.0700
     42 H42        -7.8935    2.3384   55.0220 H       1  ZINC000880838037    0.0700
     43 H43        -6.2675    2.8305   54.4908 H       1  ZINC000880838037    0.0600
@<TRIPOS>BOND
     1     1     2    1
     2     1    26    1
     3     1    27    1
     4     1    28    1
     5     2     3    1
     6     3    24   ar
     7     3     4   ar
     8     4     5   ar
     9     4    29    1
    10     5     6   ar
    11     5    30    1
    12     6     7   ar
    13     6    31    1
    14     7     8    1
    15     7    24   ar
    16     8     9   am
    17     8    32    1
    18     9    10    2
    19     9    11    1
    20    11    12    1
    21    11    33    1
    22    11    34    1
    23    12    23    1
    24    12    13    2
    25    13    14    1
    26    13    35    1
    27    14    15    1
    28    15    16    1
    29    15    23    2
    30    16    17    1
    31    17    18    1
    32    17    19    1
    33    17    20    1
    34    19    36    1
    35    19    37    1
    36    19    38    1
    37    20    21   am
    38    20    22    2
    39    21    39    1
    40    21    40    1
    41    24    25    1
    42    25    41    1
    43    25    42    1
    44    25    43    1
@<TRIPOS>SUBSTRUCTURE
     1 ZINC000880838037        1 TEMP              0 ****  ****    0 ROOT


##########                                Name:    ZINC000671418508
##########                DOCK_Rotatable_Bonds:                   9
##########                         Heavy_Atoms:                  28
##########                    Molecular_Weight:             405.884
##########                DOCK_Rotatable_Bonds:                   9
##########                       Formal_Charge:         -1.3411e-07
##########                     HBond_Acceptors:                   9
##########                        HBond_Donors:                   2
##########                         Heavy_Atoms:                  28
##########                          Grid_Score:          -31.067446
##########                     Grid_vdw_energy:          -30.487555
##########                      Grid_es_energy:           -0.579891
##########           Internal_energy_repulsive:           19.335449

@<TRIPOS>MOLECULE
ZINC000671418508
 52 54 1 0 0
SMALL
USER_CHARGES


@<TRIPOS>ATOM
      1 C1          1.5465    2.5677   49.2840 C.3     1  ZINC000671418508    0.1000
      2 N2          0.1578    2.4375   49.7324 N.pl3   1  ZINC000671418508   -0.3700
      3 C3         -0.3596    2.9445   50.8709 C.2     1  ZINC000671418508    0.0800
      4 C4         -1.6689    2.6055   50.9156 C.2     1  ZINC000671418508   -0.2700
      5 C5         -2.6403    2.9624   52.0112 C.3     1  ZINC000671418508    0.2000
      6 N6         -3.6895    1.9427   52.0847 N.am    1  ZINC000671418508   -0.6900
      7 C7         -4.7848    2.0455   51.3061 C.2     1  ZINC000671418508    0.5100
      8 O8         -4.9025    2.9835   50.5452 O.2     1  ZINC000671418508   -0.5100
      9 C9         -5.8544    1.0043   51.3798 C.2     1  ZINC000671418508    0.5100
     10 O10        -5.9826    0.2013   50.4791 O.2     1  ZINC000671418508   -0.5200
     11 N11        -6.6766    0.9572   52.4468 N.am    1  ZINC000671418508   -0.5800
     12 C12        -6.5425    1.9247   53.5465 C.3     1  ZINC000671418508    0.0800
     13 C13        -7.9165    2.5464   53.8180 C.3     1  ZINC000671418508    0.0400
     14 N14        -8.8975    1.4773   54.0475 N.3     1  ZINC000671418508   -0.5200
     15 C15       -10.1876    2.0306   54.4802 C.3     1  ZINC000671418508    0.1300
     16 H16       -10.6943    2.4812   53.6268 H       1  ZINC000671418508    0.0600
     17 C17        -9.9517    3.0952   55.5536 C.3     1  ZINC000671418508    0.0900
     18 O18       -11.1896    3.4058   56.1964 O.3     1  ZINC000671418508   -0.5500
     19 C19       -11.0429    0.9268   55.0469 C.ar    1  ZINC000671418508   -0.0800
     20 C20       -10.5601    0.1362   56.0730 C.ar    1  ZINC000671418508   -0.0600
     21 C21       -11.3440   -0.8763   56.5932 C.ar    1  ZINC000671418508   -0.1200
     22 C22       -12.6123   -1.0985   56.0868 C.ar    1  ZINC000671418508   -0.0300
     23 Cl23      -13.5977   -2.3696   56.7399 Cl      1  ZINC000671418508   -0.0700
     24 C24       -13.0950   -0.3069   55.0598 C.ar    1  ZINC000671418508   -0.1200
     25 C25       -12.3122    0.7089   54.5443 C.ar    1  ZINC000671418508   -0.1100
     26 C26        -9.0589    0.6370   52.8534 C.3     1  ZINC000671418508    0.0400
     27 C27        -7.7357   -0.0591   52.5394 C.3     1  ZINC000671418508    0.1100
     28 C28        -1.9615    1.8661   49.7650 C.2     1  ZINC000671418508    0.0700
     29 N29        -0.8687    1.7700   49.0520 N.2     1  ZINC000671418508   -0.2900
     30 H30         1.6506    3.4699   48.6811 H       1  ZINC000671418508    0.0800
     31 H31         2.2037    2.6324   50.1512 H       1  ZINC000671418508    0.0900
     32 H32         1.8183    1.6978   48.6861 H       1  ZINC000671418508    0.0900
     33 H33         0.1755    3.5177   51.6136 H       1  ZINC000671418508    0.1800
     34 H34        -2.1122    3.0099   52.9636 H       1  ZINC000671418508    0.0800
     35 H35        -3.0901    3.9318   51.7963 H       1  ZINC000671418508    0.0800
     36 H36        -3.5961    1.1936   52.6938 H       1  ZINC000671418508    0.4100
     37 H37        -6.1881    1.4143   54.4419 H       1  ZINC000671418508    0.0800
     38 H38        -5.8368    2.7056   53.2631 H       1  ZINC000671418508    0.1400
     39 H39        -7.8594    3.1833   54.7008 H       1  ZINC000671418508    0.0900
     40 H40        -8.2225    3.1424   52.9582 H       1  ZINC000671418508    0.0400
     41 H41        -9.2441    2.7168   56.2912 H       1  ZINC000671418508    0.0500
     42 H42        -9.5472    3.9950   55.0901 H       1  ZINC000671418508    0.0500
     43 H43       -11.8038    3.9092   55.6446 H       1  ZINC000671418508    0.3800
     44 H44        -9.5700    0.3094   56.4681 H       1  ZINC000671418508    0.1400
     45 H45       -10.9666   -1.4941   57.3945 H       1  ZINC000671418508    0.1300
     46 H46       -14.0847   -0.4801   54.6639 H       1  ZINC000671418508    0.1300
     47 H47       -12.6890    1.3272   53.7430 H       1  ZINC000671418508    0.1300
     48 H48        -9.8304   -0.1109   53.0366 H       1  ZINC000671418508    0.0900
     49 H49        -9.3489    1.2596   52.0071 H       1  ZINC000671418508    0.0400
     50 H50        -7.8180   -0.5919   51.5920 H       1  ZINC000671418508    0.1000
     51 H51        -7.4927   -0.7609   53.3373 H       1  ZINC000671418508    0.0800
     52 H52        -2.9245    1.4507   49.5071 H       1  ZINC000671418508    0.1900
@<TRIPOS>BOND
     1     1     2    1
     2     1    30    1
     3     1    31    1
     4     1    32    1
     5     2    29    1
     6     2     3    1
     7     3     4    2
     8     3    33    1
     9     4     5    1
    10     4    28    1
    11     5     6    1
    12     5    34    1
    13     5    35    1
    14     6     7   am
    15     6    36    1
    16     7     8    2
    17     7     9    1
    18     9    10    2
    19     9    11   am
    20    11    27    1
    21    11    12    1
    22    12    13    1
    23    12    37    1
    24    12    38    1
    25    13    14    1
    26    13    39    1
    27    13    40    1
    28    14    15    1
    29    14    26    1
    30    15    16    1
    31    15    17    1
    32    15    19    1
    33    17    18    1
    34    17    41    1
    35    17    42    1
    36    18    43    1
    37    19    25   ar
    38    19    20   ar
    39    20    21   ar
    40    20    44    1
    41    21    22   ar
    42    21    45    1
    43    22    23    1
    44    22    24   ar
    45    24    25   ar
    46    24    46    1
    47    25    47    1
    48    26    27    1
    49    26    48    1
    50    26    49    1
    51    27    50    1
    52    27    51    1
    53    28    29    2
    54    28    52    1
@<TRIPOS>SUBSTRUCTURE
     1 ZINC000671418508        1 TEMP              0 ****  ****    0 ROOT


##########                                Name:    ZINC000494558165
##########                DOCK_Rotatable_Bonds:                  11
##########                         Heavy_Atoms:                  28
##########                    Molecular_Weight:             409.506
##########                DOCK_Rotatable_Bonds:                  11
##########                       Formal_Charge:        -6.55651e-07
##########                     HBond_Acceptors:                   9
##########                        HBond_Donors:                   3
##########                         Heavy_Atoms:                  28
##########                          Grid_Score:          -31.044384
##########                     Grid_vdw_energy:          -30.611237
##########                      Grid_es_energy:           -0.433148
##########           Internal_energy_repulsive:           32.652351

@<TRIPOS>MOLECULE
ZINC000494558165
 55 57 1 0 0
SMALL
USER_CHARGES


@<TRIPOS>ATOM
      1 O1         -5.8607    5.0056   56.2116 O.2     1  ZINC000494558165   -0.4400
      2 C2         -5.8228    3.9596   55.6000 C.2     1  ZINC000494558165    0.5100
      3 C3         -5.3904    3.9459   54.1565 C.3     1  ZINC000494558165    0.0300
      4 N4         -6.4961    3.4623   53.3187 N.3     1  ZINC000494558165   -0.5000
      5 C5         -7.7193    4.2386   53.5619 C.3     1  ZINC000494558165    0.0500
      6 C6         -8.7220    3.3810   54.3365 C.3     1  ZINC000494558165   -0.1100
      7 C7        -10.0946    3.4712   53.6668 C.3     1  ZINC000494558165    0.0800
      8 O8        -10.3706    2.2491   52.9796 O.3     1  ZINC000494558165   -0.5700
      9 C9         -6.1295    3.4890   51.8964 C.3     1  ZINC000494558165    0.1200
     10 H10        -6.3869    4.4534   51.4583 H       1  ZINC000494558165    0.1000
     11 C11        -6.8420    2.3490   51.1382 C.3     1  ZINC000494558165   -0.1200
     12 C12        -5.8027    1.2095   51.2005 C.3     1  ZINC000494558165   -0.0900
     13 C13        -4.4630    1.9018   51.3299 C.ar    1  ZINC000494558165   -0.0900
     14 C14        -3.1814    1.4238   51.1153 C.ar    1  ZINC000494558165   -0.1100
     15 C15        -2.0908    2.2514   51.2996 C.ar    1  ZINC000494558165   -0.1100
     16 C16        -2.2785    3.5610   51.6994 C.ar    1  ZINC000494558165   -0.1200
     17 C17        -3.5564    4.0399   51.9140 C.ar    1  ZINC000494558165   -0.1000
     18 C18        -4.6502    3.2145   51.7301 C.ar    1  ZINC000494558165   -0.1300
     19 N19        -6.1617    2.8080   56.2129 N.am    1  ZINC000494558165   -0.6900
     20 C20        -6.5484    2.8203   57.5040 C.2     1  ZINC000494558165    0.7000
     21 O21        -6.5898    3.8694   58.1161 O.2     1  ZINC000494558165   -0.5200
     22 N22        -6.8889    1.6690   58.1163 N.am    1  ZINC000494558165   -0.7300
     23 C23        -7.3108    1.6824   59.5192 C.3     1  ZINC000494558165    0.1700
     24 H24        -6.6000    2.2601   60.1101 H       1  ZINC000494558165    0.1200
     25 C25        -8.7102    2.3124   59.6326 C.3     1  ZINC000494558165   -0.1400
     26 C26        -9.2249    1.9958   61.0605 C.3     1  ZINC000494558165   -0.5800
     27 S27        -8.7289    0.2456   61.2843 S.o2    1  ZINC000494558165    2.4000
     28 O28        -8.1851    0.0729   62.5857 O.2     1  ZINC000494558165   -0.9300
     29 O29        -9.7781   -0.6021   60.8373 O.2     1  ZINC000494558165   -0.9300
     30 C30        -7.3770    0.2382   60.0545 C.3     1  ZINC000494558165   -0.6200
     31 H31        -5.1167    4.9554   53.8495 H       1  ZINC000494558165    0.0700
     32 H32        -4.5312    3.2853   54.0408 H       1  ZINC000494558165    0.1200
     33 H33        -7.4759    5.1276   54.1436 H       1  ZINC000494558165    0.0900
     34 H34        -8.1560    4.5364   52.6087 H       1  ZINC000494558165    0.0400
     35 H35        -8.3867    2.3438   54.3398 H       1  ZINC000494558165    0.0700
     36 H36        -8.7936    3.7429   55.3621 H       1  ZINC000494558165    0.0800
     37 H37       -10.8585    3.6419   54.4254 H       1  ZINC000494558165    0.0500
     38 H38       -10.0981    4.2969   52.9552 H       1  ZINC000494558165    0.0400
     39 H39       -10.5718    1.5057   53.5644 H       1  ZINC000494558165    0.3800
     40 H40        -7.7625    2.0618   51.6463 H       1  ZINC000494558165    0.0900
     41 H41        -7.0412    2.6357   50.1057 H       1  ZINC000494558165    0.0800
     42 H42        -5.9869    0.5766   52.0685 H       1  ZINC000494558165    0.0800
     43 H43        -5.8357    0.6173   50.2860 H       1  ZINC000494558165    0.0800
     44 H44        -3.0339    0.4005   50.8033 H       1  ZINC000494558165    0.1200
     45 H45        -1.0924    1.8755   51.1310 H       1  ZINC000494558165    0.1300
     46 H46        -1.4269    4.2093   51.8443 H       1  ZINC000494558165    0.1200
     47 H47        -3.7023    5.0633   52.2267 H       1  ZINC000494558165    0.1200
     48 H48        -6.1275    1.9705   55.7248 H       1  ZINC000494558165    0.4100
     49 H49        -6.8547    0.8314   57.6282 H       1  ZINC000494558165    0.4000
     50 H50        -8.6467    3.3911   59.4892 H       1  ZINC000494558165    0.1100
     51 H51        -9.3776    1.8753   58.8897 H       1  ZINC000494558165    0.0900
     52 H52        -8.7370    2.6335   61.7978 H       1  ZINC000494558165    0.1400
     53 H53       -10.3085    2.1006   61.1133 H       1  ZINC000494558165    0.1400
     54 H54        -7.6046   -0.4565   59.2461 H       1  ZINC000494558165    0.1500
     55 H55        -6.4338   -0.0295   60.5305 H       1  ZINC000494558165    0.1500
@<TRIPOS>BOND
     1     1     2    2
     2     2     3    1
     3     2    19   am
     4     3     4    1
     5     3    31    1
     6     3    32    1
     7     4     5    1
     8     4     9    1
     9     5     6    1
    10     5    33    1
    11     5    34    1
    12     6     7    1
    13     6    35    1
    14     6    36    1
    15     7     8    1
    16     7    37    1
    17     7    38    1
    18     8    39    1
    19     9    10    1
    20     9    18    1
    21     9    11    1
    22    11    12    1
    23    11    40    1
    24    11    41    1
    25    12    13    1
    26    12    42    1
    27    12    43    1
    28    13    18   ar
    29    13    14   ar
    30    14    15   ar
    31    14    44    1
    32    15    16   ar
    33    15    45    1
    34    16    17   ar
    35    16    46    1
    36    17    18   ar
    37    17    47    1
    38    19    20   am
    39    19    48    1
    40    20    21    2
    41    20    22   am
    42    22    23    1
    43    22    49    1
    44    23    24    1
    45    23    30    1
    46    23    25    1
    47    25    26    1
    48    25    50    1
    49    25    51    1
    50    26    27    1
    51    26    52    1
    52    26    53    1
    53    27    28    2
    54    27    29    2
    55    27    30    1
    56    30    54    1
    57    30    55    1
@<TRIPOS>SUBSTRUCTURE
     1 ZINC000494558165        1 TEMP              0 ****  ****    0 ROOT


##########                                Name:    ZINC000937331732
##########                DOCK_Rotatable_Bonds:                   6
##########                         Heavy_Atoms:                  24
##########                    Molecular_Weight:              333.35
##########                DOCK_Rotatable_Bonds:                   6
##########                       Formal_Charge:          -0.0299999
##########                     HBond_Acceptors:                  10
##########                        HBond_Donors:                   1
##########                         Heavy_Atoms:                  24
##########                          Grid_Score:          -31.033590
##########                     Grid_vdw_energy:          -31.195993
##########                      Grid_es_energy:            0.162402
##########           Internal_energy_repulsive:           31.655315

@<TRIPOS>MOLECULE
ZINC000937331732
 43 45 1 0 0
SMALL
USER_CHARGES


@<TRIPOS>ATOM
      1 C1         -6.2604    3.8245   51.8813 C.3     1  ZINC000937331732    0.0600
      2 N2         -6.1068    2.3881   52.1253 N.am    1  ZINC000937331732   -0.6100
      3 C3         -5.2530    1.6646   51.3743 C.2     1  ZINC000937331732    0.5000
      4 O4         -5.1247    0.4758   51.5772 O.2     1  ZINC000937331732   -0.5200
      5 C5         -4.4578    2.3328   50.2823 C.3     1  ZINC000937331732    0.1500
      6 N6         -3.0966    2.5917   50.7582 N.am    1  ZINC000937331732   -0.4400
      7 N7         -2.7403    3.3298   51.8953 N.2     1  ZINC000937331732   -0.2800
      8 C8         -1.4494    3.3353   51.9838 C.2     1  ZINC000937331732    0.2600
      9 N9         -0.9298    2.6186   50.9335 N.am    1  ZINC000937331732   -0.5600
     10 C10         0.4932    2.3875   50.6734 C.3     1  ZINC000937331732    0.1000
     11 C11        -1.9535    2.1590   50.1862 C.2     1  ZINC000937331732    0.6500
     12 O12        -1.8630    1.4842   49.1761 O.2     1  ZINC000937331732   -0.5500
     13 C13        -6.8811    1.7383   53.1857 C.3     1  ZINC000937331732    0.1300
     14 H14        -6.2273    1.4143   53.9954 H       1  ZINC000937331732    0.1200
     15 C15        -7.9863    2.6879   53.7190 C.3     1  ZINC000937331732   -0.1500
     16 C16        -9.0361    1.6780   54.2461 C.3     1  ZINC000937331732    0.1000
     17 N17        -9.0011    0.5609   53.2847 N.am    1  ZINC000937331732   -0.6000
     18 C18       -10.0059   -0.3064   53.0513 C.2     1  ZINC000937331732    0.6200
     19 O19        -9.8650   -1.1942   52.2325 O.2     1  ZINC000937331732   -0.5400
     20 C20       -11.2760   -0.1786   53.7888 C.2     1  ZINC000937331732    0.1400
     21 N21       -12.3429   -0.9313   53.6230 N.2     1  ZINC000937331732   -0.4400
     22 C22       -13.2956   -0.5262   54.4596 C.2     1  ZINC000937331732   -0.0300
     23 C23       -12.8162    0.5178   55.1792 C.2     1  ZINC000937331732   -0.0200
     24 N24       -11.5457    0.7380   54.7659 N.pl3   1  ZINC000937331732   -0.5200
     25 C25        -7.6850    0.5472   52.6229 C.3     1  ZINC000937331732    0.1000
     26 H26        -7.0529    3.9862   51.1507 H       1  ZINC000937331732    0.0700
     27 H27        -6.5184    4.3260   52.8141 H       1  ZINC000937331732    0.0800
     28 H28        -5.3242    4.2301   51.4977 H       1  ZINC000937331732    0.0800
     29 H29        -4.4197    1.6808   49.4097 H       1  ZINC000937331732    0.1300
     30 H30        -4.9333    3.2753   50.0113 H       1  ZINC000937331732    0.1300
     31 H31        -0.8744    3.8236   52.7567 H       1  ZINC000937331732    0.2300
     32 H32         1.0876    2.8748   51.4462 H       1  ZINC000937331732    0.1000
     33 H33         0.6948    1.3163   50.6814 H       1  ZINC000937331732    0.0800
     34 H34         0.7562    2.7995   49.6991 H       1  ZINC000937331732    0.0800
     35 H35        -7.6068    3.3143   54.5264 H       1  ZINC000937331732    0.0900
     36 H36        -8.3993    3.2971   52.9150 H       1  ZINC000937331732    0.0800
     37 H37        -8.7614    1.3303   55.2419 H       1  ZINC000937331732    0.0800
     38 H38       -10.0261    2.1338   54.2621 H       1  ZINC000937331732    0.1100
     39 H39       -14.2823   -0.9561   54.5497 H       1  ZINC000937331732    0.1800
     40 H40       -13.3469    1.0685   55.9418 H       1  ZINC000937331732    0.1900
     41 H41       -10.9424    1.4215   55.0971 H       1  ZINC000937331732    0.4300
     42 H42        -7.8101    0.6629   51.5464 H       1  ZINC000937331732    0.0800
     43 H43        -7.1707   -0.3891   52.8400 H       1  ZINC000937331732    0.0800
@<TRIPOS>BOND
     1     1     2    1
     2     1    26    1
     3     1    27    1
     4     1    28    1
     5     2     3   am
     6     2    13    1
     7     3     4    2
     8     3     5    1
     9     5     6    1
    10     5    29    1
    11     5    30    1
    12     6    11   am
    13     6     7    1
    14     7     8    2
    15     8     9    1
    16     8    31    1
    17     9    10    1
    18     9    11   am
    19    10    32    1
    20    10    33    1
    21    10    34    1
    22    11    12    2
    23    13    14    1
    24    13    25    1
    25    13    15    1
    26    15    16    1
    27    15    35    1
    28    15    36    1
    29    16    17    1
    30    16    37    1
    31    16    38    1
    32    17    18   am
    33    17    25    1
    34    18    19    2
    35    18    20    1
    36    20    24    1
    37    20    21    2
    38    21    22    1
    39    22    23    2
    40    22    39    1
    41    23    24    1
    42    23    40    1
    43    24    41    1
    44    25    42    1
    45    25    43    1
@<TRIPOS>SUBSTRUCTURE
     1 ZINC000937331732        1 TEMP              0 ****  ****    0 ROOT


##########                                Name:    ZINC000851838607
##########                DOCK_Rotatable_Bonds:                  12
##########                         Heavy_Atoms:                  23
##########                    Molecular_Weight:             352.495
##########                DOCK_Rotatable_Bonds:                  12
##########                       Formal_Charge:          0.00999896
##########                     HBond_Acceptors:                   8
##########                        HBond_Donors:                   2
##########                         Heavy_Atoms:                  23
##########                          Grid_Score:          -31.015919
##########                     Grid_vdw_energy:          -27.289585
##########                      Grid_es_energy:           -3.726333
##########           Internal_energy_repulsive:           22.836340

@<TRIPOS>MOLECULE
ZINC000851838607
 55 54 1 0 0
SMALL
USER_CHARGES


@<TRIPOS>ATOM
      1 C1        -19.6580    0.9060   58.9169 C.3     1  ZINC000851838607    0.0300
      2 O2        -19.0854   -0.3924   59.0853 O.3     1  ZINC000851838607   -0.3800
      3 C3        -18.3295   -0.8448   57.9601 C.3     1  ZINC000851838607    0.0800
      4 C4        -17.7679   -2.2382   58.2499 C.3     1  ZINC000851838607   -0.6000
      5 H5        -18.5877   -2.9214   58.4716 H       1  ZINC000851838607    0.1400
      6 C6        -16.9999   -2.7430   57.0266 C.3     1  ZINC000851838607   -0.1400
      7 S7        -16.6483   -2.1546   59.6747 S.o2    1  ZINC000851838607    2.6200
      8 O8        -17.2471   -1.4256   60.7373 O.2     1  ZINC000851838607   -0.9400
      9 O9        -16.0392   -3.4176   59.9049 O.2     1  ZINC000851838607   -0.9500
     10 N10       -15.4039   -1.1876   59.1662 N.am    1  ZINC000851838607   -1.1200
     11 C11       -14.2905   -0.8904   60.0706 C.3     1  ZINC000851838607    0.1100
     12 C12       -13.0720   -1.7248   59.6709 C.3     1  ZINC000851838607   -0.1400
     13 C13       -11.9392   -0.7953   59.2310 C.3     1  ZINC000851838607    0.1700
     14 H14       -12.3014    0.2325   59.2063 H       1  ZINC000851838607    0.1000
     15 N15       -10.8269   -0.8984   60.1788 N.am    1  ZINC000851838607   -0.7100
     16 C16       -10.7966   -0.1089   61.2708 C.2     1  ZINC000851838607    0.6500
     17 O17       -11.6926    0.6876   61.4697 O.2     1  ZINC000851838607   -0.5600
     18 O18        -9.7736   -0.2025   62.1410 O.3     1  ZINC000851838607   -0.3700
     19 C19        -8.6313    0.6638   61.9111 C.3     1  ZINC000851838607    0.1400
     20 C20        -7.9519    0.2741   60.5968 C.3     1  ZINC000851838607   -0.1800
     21 C21        -9.1016    2.1175   61.8308 C.3     1  ZINC000851838607   -0.1400
     22 C22        -7.6365    0.5127   63.0637 C.3     1  ZINC000851838607   -0.1800
     23 C23       -11.4596   -1.2006   57.8359 C.3     1  ZINC000851838607   -0.1100
     24 C24       -10.8454    0.0129   57.1351 C.3     1  ZINC000851838607   -0.1500
     25 C25       -10.4076   -2.3049   57.9591 C.3     1  ZINC000851838607   -0.1400
     26 H26       -18.8644    1.6340   58.7488 H       1  ZINC000851838607    0.0400
     27 H27       -20.3310    0.8979   58.0595 H       1  ZINC000851838607    0.0500
     28 H28       -20.2153    1.1765   59.8138 H       1  ZINC000851838607    0.0900
     29 H29       -18.9748   -0.8884   57.0828 H       1  ZINC000851838607    0.0700
     30 H30       -17.5078   -0.1535   57.7729 H       1  ZINC000851838607    0.0600
     31 H31       -16.5238   -3.6945   57.2638 H       1  ZINC000851838607    0.0700
     32 H32       -17.6909   -2.8798   56.1949 H       1  ZINC000851838607    0.0900
     33 H33       -16.2379   -2.0144   56.7500 H       1  ZINC000851838607    0.0700
     34 H34       -15.4122   -0.8180   58.2693 H       1  ZINC000851838607    0.4200
     35 H35       -14.0425    0.1691   60.0056 H       1  ZINC000851838607    0.0700
     36 H36       -14.5781   -1.1340   61.0933 H       1  ZINC000851838607    0.0800
     37 H37       -12.7436   -2.3196   60.5233 H       1  ZINC000851838607    0.0800
     38 H38       -13.3393   -2.3869   58.8473 H       1  ZINC000851838607    0.1000
     39 H39       -10.1124   -1.5349   60.0207 H       1  ZINC000851838607    0.4100
     40 H40        -8.6606    0.3819   59.7756 H       1  ZINC000851838607    0.0600
     41 H41        -7.0944    0.9245   60.4243 H       1  ZINC000851838607    0.0700
     42 H42        -7.6168   -0.7615   60.6540 H       1  ZINC000851838607    0.0900
     43 H43        -9.5856    2.3951   62.7672 H       1  ZINC000851838607    0.0700
     44 H44        -8.2440    2.7679   61.6582 H       1  ZINC000851838607    0.0800
     45 H45        -9.8102    2.2252   61.0096 H       1  ZINC000851838607    0.0700
     46 H46        -7.3013   -0.5230   63.1211 H       1  ZINC000851838607    0.0900
     47 H47        -6.7789    1.1630   62.8913 H       1  ZINC000851838607    0.0700
     48 H48        -8.1204    0.7903   64.0002 H       1  ZINC000851838607    0.0600
     49 H49       -12.3047   -1.5673   57.2534 H       1  ZINC000851838607    0.0700
     50 H50       -10.0002    0.3796   57.7176 H       1  ZINC000851838607    0.0600
     51 H51       -10.5036   -0.2760   56.1412 H       1  ZINC000851838607    0.0600
     52 H52       -11.5947    0.7995   57.0473 H       1  ZINC000851838607    0.0600
     53 H53       -10.8451   -3.1694   58.4583 H       1  ZINC000851838607    0.0500
     54 H54       -10.0659   -2.5936   56.9652 H       1  ZINC000851838607    0.0500
     55 H55        -9.5624   -1.9381   58.5416 H       1  ZINC000851838607    0.0700
@<TRIPOS>BOND
     1     1     2    1
     2     1    26    1
     3     1    27    1
     4     1    28    1
     5     2     3    1
     6     3     4    1
     7     3    29    1
     8     3    30    1
     9     4     5    1
    10     4     6    1
    11     4     7    1
    12     6    31    1
    13     6    32    1
    14     6    33    1
    15     7     8    2
    16     7     9    2
    17     7    10   am
    18    10    11    1
    19    10    34    1
    20    11    12    1
    21    11    35    1
    22    11    36    1
    23    12    13    1
    24    12    37    1
    25    12    38    1
    26    13    14    1
    27    13    15    1
    28    13    23    1
    29    15    16   am
    30    15    39    1
    31    16    17    2
    32    16    18    1
    33    18    19    1
    34    19    20    1
    35    19    21    1
    36    19    22    1
    37    20    40    1
    38    20    41    1
    39    20    42    1
    40    21    43    1
    41    21    44    1
    42    21    45    1
    43    22    46    1
    44    22    47    1
    45    22    48    1
    46    23    24    1
    47    23    25    1
    48    23    49    1
    49    24    50    1
    50    24    51    1
    51    24    52    1
    52    25    53    1
    53    25    54    1
    54    25    55    1
@<TRIPOS>SUBSTRUCTURE
     1 ZINC000851838607        1 TEMP              0 ****  ****    0 ROOT


##########                                Name:    ZINC000440379747
##########                DOCK_Rotatable_Bonds:                   8
##########                         Heavy_Atoms:                  27
##########                    Molecular_Weight:             394.452
##########                DOCK_Rotatable_Bonds:                   8
##########                       Formal_Charge:           0.0199995
##########                     HBond_Acceptors:                  10
##########                        HBond_Donors:                   3
##########                         Heavy_Atoms:                  27
##########                          Grid_Score:          -30.990622
##########                     Grid_vdw_energy:          -29.594181
##########                      Grid_es_energy:           -1.396441
##########           Internal_energy_repulsive:           20.613203

@<TRIPOS>MOLECULE
ZINC000440379747
 49 51 1 0 0
SMALL
USER_CHARGES


@<TRIPOS>ATOM
      1 C1         -4.9172    2.7835   50.4524 C.3     1  ZINC000440379747   -0.1800
      2 C2         -6.2419    2.7550   51.1704 C.2     1  ZINC000440379747    0.5200
      3 O3         -6.8679    3.7818   51.3291 O.2     1  ZINC000440379747   -0.5200
      4 N4         -6.7310    1.5887   51.6363 N.am    1  ZINC000440379747   -0.5500
      5 C5         -6.0689    0.2882   51.5059 C.3     1  ZINC000440379747    0.1100
      6 C6         -7.0122   -0.7154   52.1889 C.3     1  ZINC000440379747   -0.0900
      7 C7         -8.1759    0.1218   52.6702 C.ar    1  ZINC000440379747   -0.1100
      8 C8         -9.3239   -0.2322   53.3504 C.ar    1  ZINC000440379747   -0.0700
      9 C9        -10.2611    0.7366   53.6868 C.ar    1  ZINC000440379747    0.1200
     10 N10       -11.4241    0.3798   54.3761 N.am    1  ZINC000440379747   -0.6400
     11 C11       -11.4801    0.5107   55.7163 C.2     1  ZINC000440379747    0.5100
     12 O12       -10.5208    0.9382   56.3249 O.2     1  ZINC000440379747   -0.4900
     13 C13       -12.7222    0.1297   56.4525 C.2     1  ZINC000440379747    0.5200
     14 O14       -13.8090    0.4404   56.0107 O.2     1  ZINC000440379747   -0.5100
     15 N15       -12.6363   -0.5594   57.6077 N.am    1  ZINC000440379747   -0.5800
     16 C16       -11.3868   -0.9993   58.2549 C.3     1  ZINC000440379747    0.1000
     17 C17       -11.7505   -1.1579   59.7523 C.3     1  ZINC000440379747   -0.1300
     18 C18       -13.1936   -1.7210   59.6645 C.3     1  ZINC000440379747   -0.1600
     19 C19       -13.7728   -0.9913   58.4342 C.3     1  ZINC000440379747    0.1500
     20 H20       -14.3536   -0.1266   58.7556 H       1  ZINC000440379747    0.1000
     21 C21       -14.6608   -1.9458   57.6334 C.3     1  ZINC000440379747   -0.6500
     22 S22       -16.1253   -2.3753   58.6139 S.o2    1  ZINC000440379747    2.6200
     23 N23       -17.1658   -3.0616   57.5236 N.am    1  ZINC000440379747   -1.2500
     24 O24       -15.8264   -3.4263   59.5224 O.2     1  ZINC000440379747   -0.9500
     25 O25       -16.7969   -1.2007   59.0477 O.2     1  ZINC000440379747   -0.9500
     26 C26       -10.0367    2.0617   53.3352 C.ar    1  ZINC000440379747   -0.1000
     27 C27        -8.8903    2.4128   52.6564 C.ar    1  ZINC000440379747   -0.1400
     28 C28        -7.9430    1.4433   52.3212 C.ar    1  ZINC000440379747    0.1400
     29 H29        -4.6888    3.8059   50.1519 H       1  ZINC000440379747    0.1000
     30 H30        -4.1355    2.4170   51.1177 H       1  ZINC000440379747    0.1000
     31 H31        -4.9695    2.1479   49.5684 H       1  ZINC000440379747    0.1000
     32 H32        -5.9421    0.0323   50.4539 H       1  ZINC000440379747    0.0900
     33 H33        -5.1031    0.3032   52.0111 H       1  ZINC000440379747    0.0900
     34 H34        -7.3527   -1.4642   51.4737 H       1  ZINC000440379747    0.0900
     35 H35        -6.5131   -1.1929   53.0320 H       1  ZINC000440379747    0.1000
     36 H36        -9.4938   -1.2638   53.6211 H       1  ZINC000440379747    0.1400
     37 H37       -12.1906    0.0380   53.8898 H       1  ZINC000440379747    0.4200
     38 H38       -11.0605   -1.9532   57.8406 H       1  ZINC000440379747    0.0800
     39 H39       -10.6096   -0.2451   58.1310 H       1  ZINC000440379747    0.1000
     40 H40       -11.0838   -1.8667   60.2433 H       1  ZINC000440379747    0.1000
     41 H41       -11.7375   -0.1943   60.2618 H       1  ZINC000440379747    0.0800
     42 H42       -13.1779   -2.7992   59.5057 H       1  ZINC000440379747    0.1000
     43 H43       -13.7607   -1.4703   60.5610 H       1  ZINC000440379747    0.1000
     44 H44       -14.9724   -1.4618   56.7078 H       1  ZINC000440379747    0.1500
     45 H45       -14.1017   -2.8517   57.3993 H       1  ZINC000440379747    0.1400
     46 H46       -16.9034   -3.8599   57.0390 H       1  ZINC000440379747    0.4100
     47 H47       -18.0376   -2.6652   57.3695 H       1  ZINC000440379747    0.4200
     48 H48       -10.7626    2.8182   53.5943 H       1  ZINC000440379747    0.1400
     49 H49        -8.7216    3.4446   52.3855 H       1  ZINC000440379747    0.1500
@<TRIPOS>BOND
     1     1     2    1
     2     1    29    1
     3     1    30    1
     4     1    31    1
     5     2     3    2
     6     2     4   am
     7     4    28    1
     8     4     5    1
     9     5     6    1
    10     5    32    1
    11     5    33    1
    12     6     7    1
    13     6    34    1
    14     6    35    1
    15     7    28   ar
    16     7     8   ar
    17     8     9   ar
    18     8    36    1
    19     9    10    1
    20     9    26   ar
    21    10    11   am
    22    10    37    1
    23    11    12    2
    24    11    13    1
    25    13    14    2
    26    13    15   am
    27    15    19    1
    28    15    16    1
    29    16    17    1
    30    16    38    1
    31    16    39    1
    32    17    18    1
    33    17    40    1
    34    17    41    1
    35    18    19    1
    36    18    42    1
    37    18    43    1
    38    19    20    1
    39    19    21    1
    40    21    22    1
    41    21    44    1
    42    21    45    1
    43    22    23   am
    44    22    24    2
    45    22    25    2
    46    23    46    1
    47    23    47    1
    48    26    27   ar
    49    26    48    1
    50    27    28   ar
    51    27    49    1
@<TRIPOS>SUBSTRUCTURE
     1 ZINC000440379747        1 TEMP              0 ****  ****    0 ROOT


##########                                Name:    ZINC000481050680
##########                DOCK_Rotatable_Bonds:                   7
##########                         Heavy_Atoms:                  29
##########                    Molecular_Weight:              412.46
##########                DOCK_Rotatable_Bonds:                   7
##########                       Formal_Charge:          -0.0199997
##########                     HBond_Acceptors:                   7
##########                        HBond_Donors:                   1
##########                         Heavy_Atoms:                  29
##########                          Grid_Score:          -30.989145
##########                     Grid_vdw_energy:          -31.021095
##########                      Grid_es_energy:            0.031950
##########           Internal_energy_repulsive:           13.768458

@<TRIPOS>MOLECULE
ZINC000481050680
 47 49 1 0 0
SMALL
USER_CHARGES


@<TRIPOS>ATOM
      1 N1        -13.0631   -0.1692   52.1957 N.1     1  ZINC000481050680   -0.3900
      2 C2        -11.9701    0.1184   52.3099 C.1     1  ZINC000481050680    0.2500
      3 C3        -10.5923    0.4810   52.4538 C.ar    1  ZINC000481050680    0.0200
      4 C4         -9.6202   -0.5082   52.6146 C.ar    1  ZINC000481050680   -0.0800
      5 C5         -8.2940   -0.1532   52.7523 C.ar    1  ZINC000481050680   -0.0800
      6 C6         -7.9252    1.1795   52.7315 C.ar    1  ZINC000481050680   -0.1000
      7 C7         -6.4746    1.5590   52.8825 C.3     1  ZINC000481050680   -0.5900
      8 S8         -5.6154    1.3034   51.3056 S.o2    1  ZINC000481050680    2.6000
      9 O9         -4.5585    0.3661   51.4597 O.2     1  ZINC000481050680   -0.9300
     10 O10        -6.5501    1.1853   50.2418 O.2     1  ZINC000481050680   -0.9400
     11 N11        -4.8468    2.7415   51.0160 N.am    1  ZINC000481050680   -1.1100
     12 C12        -3.8569    3.2481   51.9696 C.3     1  ZINC000481050680    0.2100
     13 H13        -4.0456    2.8166   52.9527 H       1  ZINC000481050680    0.1000
     14 C14        -3.9623    4.7722   52.0529 C.3     1  ZINC000481050680   -0.0800
     15 C15        -4.6977    5.1569   53.3107 C.ar    1  ZINC000481050680   -0.0900
     16 C16        -6.0737    5.2887   53.2938 C.ar    1  ZINC000481050680   -0.1200
     17 C17        -6.7484    5.6417   54.4476 C.ar    1  ZINC000481050680   -0.1200
     18 C18        -6.0471    5.8624   55.6182 C.ar    1  ZINC000481050680   -0.1200
     19 C19        -4.6712    5.7299   55.6352 C.ar    1  ZINC000481050680   -0.1200
     20 C20        -3.9970    5.3727   54.4825 C.ar    1  ZINC000481050680   -0.1200
     21 C21        -2.4741    2.8645   51.5097 C.ar    1  ZINC000481050680   -0.1300
     22 C22        -2.2824    2.3706   50.2335 C.ar    1  ZINC000481050680   -0.0700
     23 C23        -1.0137    2.0185   49.8112 C.ar    1  ZINC000481050680   -0.1300
     24 C24         0.0640    2.1598   50.6651 C.ar    1  ZINC000481050680   -0.0900
     25 C25        -0.1254    2.6531   51.9422 C.ar    1  ZINC000481050680   -0.1500
     26 C26        -1.3942    3.0122   52.3639 C.ar    1  ZINC000481050680    0.1100
     27 F27        -1.5804    3.4946   53.6119 F       1  ZINC000481050680   -0.1400
     28 C28        -8.8840    2.1676   52.5719 C.ar    1  ZINC000481050680    0.1200
     29 F29        -8.5163    3.4674   52.5521 F       1  ZINC000481050680   -0.1200
     30 C30       -10.2147    1.8250   52.4281 C.ar    1  ZINC000481050680   -0.1000
     31 H31        -9.9059   -1.5496   52.6314 H       1  ZINC000481050680    0.1500
     32 H32        -7.5419   -0.9183   52.8770 H       1  ZINC000481050680    0.1500
     33 H33        -6.4015    2.6079   53.1703 H       1  ZINC000481050680    0.1500
     34 H34        -6.0149    0.9384   53.6516 H       1  ZINC000481050680    0.1500
     35 H35        -5.0522    3.2483   50.2147 H       1  ZINC000481050680    0.4200
     36 H36        -2.9621    5.2051   52.0699 H       1  ZINC000481050680    0.0900
     37 H37        -4.5055    5.1466   51.1853 H       1  ZINC000481050680    0.0900
     38 H38        -6.6216    5.1162   52.3793 H       1  ZINC000481050680    0.1200
     39 H39        -7.8233    5.7452   54.4344 H       1  ZINC000481050680    0.1200
     40 H40        -6.5742    6.1389   56.5195 H       1  ZINC000481050680    0.1200
     41 H41        -4.1233    5.9027   56.5498 H       1  ZINC000481050680    0.1200
     42 H42        -2.9221    5.2691   54.4958 H       1  ZINC000481050680    0.1200
     43 H43        -3.1239    2.2591   49.5658 H       1  ZINC000481050680    0.1300
     44 H44        -0.8648    1.6326   48.8135 H       1  ZINC000481050680    0.1300
     45 H45         1.0546    1.8841   50.3342 H       1  ZINC000481050680    0.1300
     46 H46         0.7169    2.7627   52.6094 H       1  ZINC000481050680    0.1400
     47 H47       -10.9617    2.5949   52.3035 H       1  ZINC000481050680    0.1600
@<TRIPOS>BOND
     1     1     2    3
     2     2     3    1
     3     3    30   ar
     4     3     4   ar
     5     4     5   ar
     6     4    31    1
     7     5     6   ar
     8     5    32    1
     9     6     7    1
    10     6    28   ar
    11     7     8    1
    12     7    33    1
    13     7    34    1
    14     8     9    2
    15     8    10    2
    16     8    11   am
    17    11    12    1
    18    11    35    1
    19    12    13    1
    20    12    14    1
    21    12    21    1
    22    14    15    1
    23    14    36    1
    24    14    37    1
    25    15    20   ar
    26    15    16   ar
    27    16    17   ar
    28    16    38    1
    29    17    18   ar
    30    17    39    1
    31    18    19   ar
    32    18    40    1
    33    19    20   ar
    34    19    41    1
    35    20    42    1
    36    21    26   ar
    37    21    22   ar
    38    22    23   ar
    39    22    43    1
    40    23    24   ar
    41    23    44    1
    42    24    25   ar
    43    24    45    1
    44    25    26   ar
    45    25    46    1
    46    26    27    1
    47    28    29    1
    48    28    30   ar
    49    30    47    1
@<TRIPOS>SUBSTRUCTURE
     1 ZINC000481050680        1 TEMP              0 ****  ****    0 ROOT


##########                                Name:    ZINC000373715094
##########                DOCK_Rotatable_Bonds:                   6
##########                         Heavy_Atoms:                  27
##########                    Molecular_Weight:             362.431
##########                DOCK_Rotatable_Bonds:                   6
##########                       Formal_Charge:           0.0299999
##########                     HBond_Acceptors:                   6
##########                        HBond_Donors:                   2
##########                         Heavy_Atoms:                  27
##########                          Grid_Score:          -30.986929
##########                     Grid_vdw_energy:          -29.392719
##########                      Grid_es_energy:           -1.594209
##########           Internal_energy_repulsive:           10.181892

@<TRIPOS>MOLECULE
ZINC000373715094
 49 52 1 0 0
SMALL
USER_CHARGES


@<TRIPOS>ATOM
      1 C1         -9.2071    4.1815   53.1709 C.3     1  ZINC000373715094    0.0900
      2 N2         -8.7041    2.8057   53.1965 N.am    1  ZINC000373715094   -0.6100
      3 C3         -9.3903    1.7389   52.7517 C.2     1  ZINC000373715094    0.5200
      4 O4        -10.5078    1.7783   52.2821 O.2     1  ZINC000373715094   -0.5200
      5 C5         -8.5658    0.4820   52.9218 C.3     1  ZINC000373715094   -0.1600
      6 C6         -7.1266    1.0004   53.1480 C.3     1  ZINC000373715094   -0.1000
      7 H7         -6.5990    0.3822   53.8743 H       1  ZINC000373715094    0.1100
      8 C8         -6.3554    1.0685   51.8283 C.3     1  ZINC000373715094    0.1300
      9 N9         -5.0765    1.7495   52.0448 N.am    1  ZINC000373715094   -0.7300
     10 C10        -4.5989    2.5982   51.1130 C.2     1  ZINC000373715094    0.5200
     11 O11        -5.2285    2.7991   50.0961 O.2     1  ZINC000373715094   -0.5200
     12 C12        -3.2824    3.2974   51.3349 C.3     1  ZINC000373715094   -0.0600
     13 C13        -2.1966    2.5751   50.5797 C.2     1  ZINC000373715094    0.1200
     14 N14        -2.3661    1.7944   49.5511 N.2     1  ZINC000373715094   -0.2300
     15 N15        -1.1325    1.3013   49.1135 N.pl3   1  ZINC000373715094   -0.5100
     16 C16        -0.1400    1.8031   49.9144 C.ar    1  ZINC000373715094    0.1300
     17 C17         1.2442    1.6550   49.9425 C.ar    1  ZINC000373715094   -0.1400
     18 C18         1.9786    2.3059   50.8932 C.ar    1  ZINC000373715094   -0.0700
     19 C19         1.3616    3.1170   51.8373 C.ar    1  ZINC000373715094   -0.1600
     20 C20         0.0065    3.2809   51.8340 C.ar    1  ZINC000373715094   -0.0400
     21 C21        -0.7668    2.6305   50.8665 C.ar    1  ZINC000373715094   -0.1600
     22 C22        -7.3838    2.4160   53.7054 C.3     1  ZINC000373715094    0.1800
     23 H23        -6.6188    3.1062   53.3498 H       1  ZINC000373715094    0.1000
     24 C24        -7.4005    2.3881   55.2121 C.ar    1  ZINC000373715094   -0.1000
     25 C25        -6.2481    2.6702   55.9214 C.ar    1  ZINC000373715094   -0.1000
     26 C26        -6.2635    2.6447   57.3034 C.ar    1  ZINC000373715094   -0.1200
     27 C27        -7.4314    2.3374   57.9761 C.ar    1  ZINC000373715094   -0.1100
     28 C28        -8.5841    2.0562   57.2668 C.ar    1  ZINC000373715094   -0.1200
     29 C29        -8.5698    2.0860   55.8849 C.ar    1  ZINC000373715094   -0.1100
     30 H30        -8.9323    4.6512   52.2264 H       1  ZINC000373715094    0.0600
     31 H31       -10.2925    4.1734   53.2704 H       1  ZINC000373715094    0.0800
     32 H32        -8.7706    4.7433   53.9967 H       1  ZINC000373715094    0.0700
     33 H33        -8.9078   -0.0843   53.7880 H       1  ZINC000373715094    0.1100
     34 H34        -8.6135   -0.1303   52.0214 H       1  ZINC000373715094    0.1100
     35 H35        -6.1718    0.0583   51.4623 H       1  ZINC000373715094    0.0700
     36 H36        -6.9412    1.6204   51.0933 H       1  ZINC000373715094    0.0800
     37 H37        -4.5736    1.5897   52.8587 H       1  ZINC000373715094    0.4000
     38 H38        -3.3519    4.3248   50.9776 H       1  ZINC000373715094    0.1200
     39 H39        -3.0462    3.2980   52.3990 H       1  ZINC000373715094    0.1200
     40 H40        -1.0006    0.7004   48.3636 H       1  ZINC000373715094    0.4400
     41 H41         1.7363    1.0267   49.2147 H       1  ZINC000373715094    0.1300
     42 H42         3.0521    2.1880   50.9112 H       1  ZINC000373715094    0.1300
     43 H43         1.9598    3.6224   52.5811 H       1  ZINC000373715094    0.1300
     44 H44        -0.4657    3.9133   52.5714 H       1  ZINC000373715094    0.1300
     45 H45        -5.3357    2.9103   55.3959 H       1  ZINC000373715094    0.1200
     46 H46        -5.3629    2.8644   57.8576 H       1  ZINC000373715094    0.1200
     47 H47        -7.4432    2.3167   59.0559 H       1  ZINC000373715094    0.1200
     48 H48        -9.4964    1.8158   57.7923 H       1  ZINC000373715094    0.1300
     49 H49        -9.4703    1.8663   55.3307 H       1  ZINC000373715094    0.1300
@<TRIPOS>BOND
     1     1     2    1
     2     1    30    1
     3     1    31    1
     4     1    32    1
     5     2    22    1
     6     2     3   am
     7     3     4    2
     8     3     5    1
     9     5     6    1
    10     5    33    1
    11     5    34    1
    12     6     7    1
    13     6     8    1
    14     6    22    1
    15     8     9    1
    16     8    35    1
    17     8    36    1
    18     9    10   am
    19     9    37    1
    20    10    11    2
    21    10    12    1
    22    12    13    1
    23    12    38    1
    24    12    39    1
    25    13    21    1
    26    13    14    2
    27    14    15    1
    28    15    16    1
    29    15    40    1
    30    16    21   ar
    31    16    17   ar
    32    17    18   ar
    33    17    41    1
    34    18    19   ar
    35    18    42    1
    36    19    20   ar
    37    19    43    1
    38    20    21   ar
    39    20    44    1
    40    22    23    1
    41    22    24    1
    42    24    29   ar
    43    24    25   ar
    44    25    26   ar
    45    25    45    1
    46    26    27   ar
    47    26    46    1
    48    27    28   ar
    49    27    47    1
    50    28    29   ar
    51    28    48    1
    52    29    49    1
@<TRIPOS>SUBSTRUCTURE
     1 ZINC000373715094        1 TEMP              0 ****  ****    0 ROOT


##########                                Name:    ZINC000502834785
##########                DOCK_Rotatable_Bonds:                   9
##########                         Heavy_Atoms:                  26
##########                    Molecular_Weight:             356.468
##########                DOCK_Rotatable_Bonds:                   9
##########                       Formal_Charge:           0.0199998
##########                     HBond_Acceptors:                   6
##########                        HBond_Donors:                   2
##########                         Heavy_Atoms:                  26
##########                          Grid_Score:          -30.982893
##########                     Grid_vdw_energy:          -30.322084
##########                      Grid_es_energy:           -0.660808
##########           Internal_energy_repulsive:           22.565001

@<TRIPOS>MOLECULE
ZINC000502834785
 54 56 1 0 0
SMALL
USER_CHARGES


@<TRIPOS>ATOM
      1 C1         -4.2105    2.7372   50.4501 C.3     1  ZINC000502834785   -0.1800
      2 C2         -5.4459    2.5978   51.3419 C.3     1  ZINC000502834785    0.0800
      3 C3         -6.5686    3.4852   50.8004 C.3     1  ZINC000502834785   -0.1500
      4 O4         -5.8771    1.2353   51.3488 O.3     1  ZINC000502834785   -0.3800
      5 C5         -6.1309    0.7127   52.6544 C.3     1  ZINC000502834785    0.1000
      6 C6         -7.6182    0.6398   52.8859 C.ar    1  ZINC000502834785   -0.0800
      7 C7         -8.3496   -0.4070   52.3566 C.ar    1  ZINC000502834785   -0.1000
      8 C8         -9.7138   -0.4738   52.5690 C.ar    1  ZINC000502834785   -0.1000
      9 C9        -10.3466    0.5058   53.3111 C.ar    1  ZINC000502834785   -0.1000
     10 C10       -11.8341    0.4332   53.5423 C.3     1  ZINC000502834785    0.1600
     11 N11       -12.5349    0.5890   52.2652 N.am    1  ZINC000502834785   -0.7300
     12 C12       -13.7184   -0.0245   52.0668 C.2     1  ZINC000502834785    0.5100
     13 O13       -14.2039   -0.7044   52.9459 O.2     1  ZINC000502834785   -0.5200
     14 C14       -14.4384    0.1343   50.7525 C.3     1  ZINC000502834785    0.0300
     15 N15       -13.5475    0.7836   49.7815 N.3     1  ZINC000502834785   -0.5000
     16 C16       -13.4452    2.2350   50.0443 C.3     1  ZINC000502834785    0.0500
     17 C17       -13.2873    2.8802   48.6449 C.3     1  ZINC000502834785   -0.1300
     18 C18       -14.2196    1.9895   47.7821 C.3     1  ZINC000502834785   -0.1300
     19 C19       -14.0357    0.5891   48.4040 C.3     1  ZINC000502834785    0.1500
     20 H20       -13.3051    0.0208   47.8284 H       1  ZINC000502834785    0.1100
     21 C21       -15.3539   -0.1409   48.4220 C.2     1  ZINC000502834785    0.0600
     22 N22       -16.5090    0.3696   48.7639 N.2     1  ZINC000502834785   -0.2900
     23 N23       -17.4821   -0.6312   48.6457 N.pl3   1  ZINC000502834785   -0.4800
     24 C24       -16.8706   -1.7570   48.2219 C.2     1  ZINC000502834785    0.0600
     25 C25       -15.5548   -1.4797   48.0704 C.2     1  ZINC000502834785   -0.2600
     26 C26        -9.6150    1.5518   53.8416 C.ar    1  ZINC000502834785   -0.1000
     27 C27        -8.2501    1.6166   53.6324 C.ar    1  ZINC000502834785   -0.1000
     28 H28        -3.4108    2.1049   50.8358 H       1  ZINC000502834785    0.0600
     29 H29        -4.4591    2.4295   49.4343 H       1  ZINC000502834785    0.0600
     30 H30        -3.8817    3.7764   50.4447 H       1  ZINC000502834785    0.0700
     31 H31        -5.1975    2.9055   52.3576 H       1  ZINC000502834785    0.0600
     32 H32        -6.8170    3.1775   49.7847 H       1  ZINC000502834785    0.0600
     33 H33        -7.4486    3.3859   51.4357 H       1  ZINC000502834785    0.0600
     34 H34        -6.2397    4.5244   50.7951 H       1  ZINC000502834785    0.0700
     35 H35        -5.7011   -0.2857   52.7359 H       1  ZINC000502834785    0.0600
     36 H36        -5.6784    1.3651   53.4012 H       1  ZINC000502834785    0.0600
     37 H37        -7.8552   -1.1724   51.7768 H       1  ZINC000502834785    0.1300
     38 H38       -10.2855   -1.2912   52.1548 H       1  ZINC000502834785    0.1300
     39 H39       -12.0870   -0.5325   53.9800 H       1  ZINC000502834785    0.0800
     40 H40       -12.1356    1.2303   54.2217 H       1  ZINC000502834785    0.0800
     41 H41       -12.1471    1.1338   51.5625 H       1  ZINC000502834785    0.4000
     42 H42       -14.7310   -0.8465   50.3777 H       1  ZINC000502834785    0.1000
     43 H43       -15.3273    0.7482   50.8970 H       1  ZINC000502834785    0.0800
     44 H44       -14.3516    2.5975   50.5292 H       1  ZINC000502834785    0.0400
     45 H45       -12.5723    2.4484   50.6612 H       1  ZINC000502834785    0.1000
     46 H46       -13.6312    3.9145   48.6507 H       1  ZINC000502834785    0.0800
     47 H47       -12.2557    2.8153   48.2991 H       1  ZINC000502834785    0.0800
     48 H48       -15.2554    2.3172   47.8700 H       1  ZINC000502834785    0.0800
     49 H49       -13.9001    1.9933   46.7400 H       1  ZINC000502834785    0.0800
     50 H50       -18.4283   -0.5323   48.8350 H       1  ZINC000502834785    0.4400
     51 H51       -17.3468   -2.7078   48.0332 H       1  ZINC000502834785    0.1800
     52 H52       -14.7934   -2.1716   47.7420 H       1  ZINC000502834785    0.1500
     53 H53       -10.1093    2.3170   54.4218 H       1  ZINC000502834785    0.1300
     54 H54        -7.6785    2.4338   54.0469 H       1  ZINC000502834785    0.1200
@<TRIPOS>BOND
     1     1     2    1
     2     1    28    1
     3     1    29    1
     4     1    30    1
     5     2     3    1
     6     2     4    1
     7     2    31    1
     8     3    32    1
     9     3    33    1
    10     3    34    1
    11     4     5    1
    12     5     6    1
    13     5    35    1
    14     5    36    1
    15     6    27   ar
    16     6     7   ar
    17     7     8   ar
    18     7    37    1
    19     8     9   ar
    20     8    38    1
    21     9    10    1
    22     9    26   ar
    23    10    11    1
    24    10    39    1
    25    10    40    1
    26    11    12   am
    27    11    41    1
    28    12    13    2
    29    12    14    1
    30    14    15    1
    31    14    42    1
    32    14    43    1
    33    15    19    1
    34    15    16    1
    35    16    17    1
    36    16    44    1
    37    16    45    1
    38    17    18    1
    39    17    46    1
    40    17    47    1
    41    18    19    1
    42    18    48    1
    43    18    49    1
    44    19    20    1
    45    19    21    1
    46    21    25    1
    47    21    22    2
    48    22    23    1
    49    23    24    1
    50    23    50    1
    51    24    25    2
    52    24    51    1
    53    25    52    1
    54    26    27   ar
    55    26    53    1
    56    27    54    1
@<TRIPOS>SUBSTRUCTURE
     1 ZINC000502834785        1 TEMP              0 ****  ****    0 ROOT


##########                                Name:    ZINC001341052241
##########                DOCK_Rotatable_Bonds:                   7
##########                         Heavy_Atoms:                  24
##########                    Molecular_Weight:             336.478
##########                DOCK_Rotatable_Bonds:                   7
##########                       Formal_Charge:         5.96046e-08
##########                     HBond_Acceptors:                   6
##########                        HBond_Donors:                   0
##########                         Heavy_Atoms:                  24
##########                          Grid_Score:          -30.969746
##########                     Grid_vdw_energy:          -30.253576
##########                      Grid_es_energy:           -0.716168
##########           Internal_energy_repulsive:           13.220292

@<TRIPOS>MOLECULE
ZINC001341052241
 56 58 1 0 0
SMALL
USER_CHARGES


@<TRIPOS>ATOM
      1 C1         -8.6904    3.2922   52.9441 C.3     1  ZINC001341052241   -0.1700
      2 C2         -8.2504    2.2242   53.9474 C.3     1  ZINC001341052241    0.1100
      3 N3         -8.2598    0.9109   53.2982 N.pl3   1  ZINC001341052241   -0.4500
      4 C4         -7.2278    0.3134   52.6292 C.2     1  ZINC001341052241    0.1800
      5 C5         -5.8497    0.8857   52.4181 C.3     1  ZINC001341052241    0.1500
      6 O6         -5.8253    1.6317   51.1996 O.3     1  ZINC001341052241   -0.3700
      7 C7         -4.6323    2.3950   51.0092 C.3     1  ZINC001341052241    0.0900
      8 C8         -3.4147    1.5278   51.3351 C.3     1  ZINC001341052241   -0.1400
      9 C9         -2.1374    2.3450   51.1311 C.3     1  ZINC001341052241   -0.1200
     10 C10        -2.1581    3.5633   52.0564 C.3     1  ZINC001341052241   -0.1200
     11 C11        -3.3758    4.4304   51.7304 C.3     1  ZINC001341052241   -0.1200
     12 C12        -4.6531    3.6133   51.9344 C.3     1  ZINC001341052241   -0.1200
     13 N13        -7.6564   -0.8429   52.2086 N.2     1  ZINC001341052241   -0.2600
     14 N14        -8.8778   -1.0178   52.5686 N.2     1  ZINC001341052241   -0.3100
     15 C15        -9.3004    0.0305   53.2354 C.2     1  ZINC001341052241    0.3500
     16 N16       -10.5630    0.2074   53.7783 N.3     1  ZINC001341052241   -0.4600
     17 C17       -11.5859   -0.4538   52.9580 C.3     1  ZINC001341052241    0.0700
     18 C18       -12.9755   -0.1170   53.5038 C.3     1  ZINC001341052241   -0.1100
     19 C19       -13.0760   -0.5893   54.9568 C.3     1  ZINC001341052241   -0.0900
     20 C20       -14.4416   -0.2011   55.5272 C.3     1  ZINC001341052241    0.0700
     21 O21       -15.2387   -1.3751   55.6958 O.3     1  ZINC001341052241   -0.3900
     22 C22       -16.4977   -1.1370   56.3283 C.3     1  ZINC001341052241    0.0300
     23 C23       -11.9697    0.0768   55.7795 C.3     1  ZINC001341052241   -0.1100
     24 C24       -10.6093   -0.2656   55.1678 C.3     1  ZINC001341052241    0.0700
     25 H25        -8.0097    3.2934   52.0928 H       1  ZINC001341052241    0.0600
     26 H26        -9.7015    3.0735   52.6005 H       1  ZINC001341052241    0.0700
     27 H27        -8.6736    4.2707   53.4242 H       1  ZINC001341052241    0.0800
     28 H28        -8.9371    2.2160   54.7938 H       1  ZINC001341052241    0.0900
     29 H29        -7.2433    2.4486   54.2987 H       1  ZINC001341052241    0.1000
     30 H30        -5.5974    1.5420   53.2510 H       1  ZINC001341052241    0.0900
     31 H31        -5.1241    0.0743   52.3620 H       1  ZINC001341052241    0.0700
     32 H32        -4.5750    2.7270   49.9725 H       1  ZINC001341052241    0.0600
     33 H33        -3.4720    1.1958   52.3717 H       1  ZINC001341052241    0.0700
     34 H34        -3.3998    0.6599   50.6759 H       1  ZINC001341052241    0.0700
     35 H35        -2.0799    2.6769   50.0945 H       1  ZINC001341052241    0.0600
     36 H36        -1.2698    1.7271   51.3634 H       1  ZINC001341052241    0.0700
     37 H37        -1.2481    4.1454   51.9112 H       1  ZINC001341052241    0.0600
     38 H38        -2.2155    3.2314   53.0930 H       1  ZINC001341052241    0.0600
     39 H39        -3.3184    4.7625   50.6939 H       1  ZINC001341052241    0.0600
     40 H40        -3.3906    5.2984   52.3897 H       1  ZINC001341052241    0.0700
     41 H41        -5.5207    4.2311   51.7022 H       1  ZINC001341052241    0.0700
     42 H42        -4.7105    3.2814   52.9711 H       1  ZINC001341052241    0.0700
     43 H43       -11.4351   -1.5329   52.9895 H       1  ZINC001341052241    0.0600
     44 H44       -11.5062   -0.1060   51.9281 H       1  ZINC001341052241    0.0800
     45 H45       -13.7337   -0.6205   52.9042 H       1  ZINC001341052241    0.0800
     46 H46       -13.1323    0.9608   53.4597 H       1  ZINC001341052241    0.0800
     47 H47       -12.9591   -1.6723   54.9967 H       1  ZINC001341052241    0.0800
     48 H48       -14.9415    0.4818   54.8403 H       1  ZINC001341052241    0.0500
     49 H49       -14.3067    0.2881   56.4919 H       1  ZINC001341052241    0.0500
     50 H50       -16.3323   -0.7154   57.3198 H       1  ZINC001341052241    0.0400
     51 H51       -17.0421   -2.0769   56.4193 H       1  ZINC001341052241    0.0900
     52 H52       -17.0791   -0.4370   55.7283 H       1  ZINC001341052241    0.0400
     53 H53       -12.1108    1.1577   55.7713 H       1  ZINC001341052241    0.0700
     54 H54       -12.0095   -0.2882   56.8058 H       1  ZINC001341052241    0.0800
     55 H55       -10.4630   -1.3455   55.1889 H       1  ZINC001341052241    0.0600
     56 H56        -9.8202    0.2189   55.7429 H       1  ZINC001341052241    0.0800
@<TRIPOS>BOND
     1     1     2    1
     2     1    25    1
     3     1    26    1
     4     1    27    1
     5     2     3    1
     6     2    28    1
     7     2    29    1
     8     3    15    1
     9     3     4    1
    10     4     5    1
    11     4    13    2
    12     5     6    1
    13     5    30    1
    14     5    31    1
    15     6     7    1
    16     7    12    1
    17     7     8    1
    18     7    32    1
    19     8     9    1
    20     8    33    1
    21     8    34    1
    22     9    10    1
    23     9    35    1
    24     9    36    1
    25    10    11    1
    26    10    37    1
    27    10    38    1
    28    11    12    1
    29    11    39    1
    30    11    40    1
    31    12    41    1
    32    12    42    1
    33    13    14    1
    34    14    15    2
    35    15    16    1
    36    16    24    1
    37    16    17    1
    38    17    18    1
    39    17    43    1
    40    17    44    1
    41    18    19    1
    42    18    45    1
    43    18    46    1
    44    19    20    1
    45    19    23    1
    46    19    47    1
    47    20    21    1
    48    20    48    1
    49    20    49    1
    50    21    22    1
    51    22    50    1
    52    22    51    1
    53    22    52    1
    54    23    24    1
    55    23    53    1
    56    23    54    1
    57    24    55    1
    58    24    56    1
@<TRIPOS>SUBSTRUCTURE
     1 ZINC001341052241        1 TEMP              0 ****  ****    0 ROOT


##########                                Name:    ZINC000587344575
##########                DOCK_Rotatable_Bonds:                   7
##########                         Heavy_Atoms:                  30
##########                    Molecular_Weight:             408.475
##########                DOCK_Rotatable_Bonds:                   7
##########                       Formal_Charge:          -0.0100002
##########                     HBond_Acceptors:                   7
##########                        HBond_Donors:                   2
##########                         Heavy_Atoms:                  30
##########                          Grid_Score:          -30.937494
##########                     Grid_vdw_energy:          -31.407284
##########                      Grid_es_energy:            0.469789
##########           Internal_energy_repulsive:           14.770154

@<TRIPOS>MOLECULE
ZINC000587344575
 55 57 1 0 0
SMALL
USER_CHARGES


@<TRIPOS>ATOM
      1 C1          0.1643    4.4265   52.5884 C.3     1  ZINC000587344575   -0.1200
      2 C2         -0.5201    3.5575   51.5649 C.ar    1  ZINC000587344575    0.0000
      3 C3         -1.8945    3.4953   51.5223 C.ar    1  ZINC000587344575   -0.1600
      4 C4         -2.5273    2.6936   50.5772 C.ar    1  ZINC000587344575    0.1800
      5 N5         -3.9198    2.6332   50.5365 N.am    1  ZINC000587344575   -0.6700
      6 C6         -4.5722    1.6645   51.2091 C.2     1  ZINC000587344575    0.5200
      7 O7         -3.9481    0.8453   51.8497 O.2     1  ZINC000587344575   -0.5000
      8 C8         -6.0772    1.5991   51.1652 C.3     1  ZINC000587344575   -0.1200
      9 H9         -6.4054    1.0340   50.2929 H       1  ZINC000587344575    0.1100
     10 C10        -6.6754    3.0244   51.1374 C.3     1  ZINC000587344575   -0.1200
     11 C11        -7.9173    2.8968   52.0551 C.3     1  ZINC000587344575    0.0400
     12 N12        -7.4541    1.9804   53.1283 N.3     1  ZINC000587344575   -0.4800
     13 C13        -8.5341    1.3923   53.7834 C.ar    1  ZINC000587344575    0.0700
     14 C14        -9.3798    0.5316   53.0920 C.ar    1  ZINC000587344575   -0.1200
     15 C15       -10.4487   -0.0513   53.7359 C.ar    1  ZINC000587344575   -0.0700
     16 C16       -10.6838    0.2219   55.0862 C.ar    1  ZINC000587344575    0.0000
     17 C17       -11.7942   -0.3833   55.7580 C.1     1  ZINC000587344575    0.2500
     18 N18       -12.6751   -0.8634   56.2909 N.1     1  ZINC000587344575   -0.4000
     19 C19        -9.8320    1.0874   55.7800 C.ar    1  ZINC000587344575   -0.1000
     20 C20        -8.7613    1.6634   55.1315 C.ar    1  ZINC000587344575    0.1300
     21 F21        -7.9371    2.4993   55.8002 F       1  ZINC000587344575   -0.1200
     22 C22        -6.6222    0.9569   52.4543 C.3     1  ZINC000587344575    0.0500
     23 C23        -1.7738    1.9526   49.6725 C.ar    1  ZINC000587344575   -0.1400
     24 C24        -0.3986    2.0104   49.7096 C.ar    1  ZINC000587344575   -0.0600
     25 C25         0.2399    2.8186   50.6540 C.ar    1  ZINC000587344575   -0.1600
     26 C26         1.7139    2.8833   50.6964 C.2     1  ZINC000587344575    0.5600
     27 O27         2.2817    3.9405   50.5016 O.2     1  ZINC000587344575   -0.5300
     28 N28         2.4302    1.7704   50.9510 N.am    1  ZINC000587344575   -0.7200
     29 C29         3.8933    1.8343   50.9913 C.3     1  ZINC000587344575    0.1400
     30 C30         4.3441    2.3404   52.3629 C.3     1  ZINC000587344575   -0.1600
     31 C31         4.4716    0.4389   50.7471 C.3     1  ZINC000587344575   -0.1600
     32 H32         0.4188    5.3861   52.1386 H       1  ZINC000587344575    0.0800
     33 H33        -0.5046    4.5875   53.4339 H       1  ZINC000587344575    0.0600
     34 H34         1.0737    3.9342   52.9332 H       1  ZINC000587344575    0.1000
     35 H35        -2.4825    4.0690   52.2235 H       1  ZINC000587344575    0.1300
     36 H36        -4.4189    3.2883   50.0242 H       1  ZINC000587344575    0.4100
     37 H37        -5.9683    3.7476   51.5437 H       1  ZINC000587344575    0.0900
     38 H38        -6.9707    3.2991   50.1248 H       1  ZINC000587344575    0.0900
     39 H39        -8.1909    3.8672   52.4694 H       1  ZINC000587344575    0.0900
     40 H40        -8.7545    2.4598   51.5108 H       1  ZINC000587344575    0.0600
     41 H41        -9.1983    0.3203   52.0485 H       1  ZINC000587344575    0.1400
     42 H42       -11.1051   -0.7190   53.1976 H       1  ZINC000587344575    0.1400
     43 H43       -10.0107    1.3007   56.8236 H       1  ZINC000587344575    0.1500
     44 H44        -7.2306    0.0862   52.2094 H       1  ZINC000587344575    0.0600
     45 H45        -5.7954    0.6651   53.1019 H       1  ZINC000587344575    0.1100
     46 H46        -2.2680    1.3311   48.9405 H       1  ZINC000587344575    0.1400
     47 H47         0.1858    1.4349   49.0070 H       1  ZINC000587344575    0.1300
     48 H48         1.9771    0.9272   51.1075 H       1  ZINC000587344575    0.4000
     49 H49         4.2487    2.5152   50.2179 H       1  ZINC000587344575    0.0900
     50 H50         3.9887    1.6594   53.1363 H       1  ZINC000587344575    0.0600
     51 H51         5.4326    2.3879   52.3929 H       1  ZINC000587344575    0.0700
     52 H52         3.9321    3.3345   52.5368 H       1  ZINC000587344575    0.0600
     53 H53         4.1162   -0.2421   51.5205 H       1  ZINC000587344575    0.0600
     54 H54         4.1504    0.0784   49.7700 H       1  ZINC000587344575    0.0600
     55 H55         5.5601    0.4865   50.7771 H       1  ZINC000587344575    0.0700
@<TRIPOS>BOND
     1     1     2    1
     2     1    32    1
     3     1    33    1
     4     1    34    1
     5     2    25   ar
     6     2     3   ar
     7     3     4   ar
     8     3    35    1
     9     4     5    1
    10     4    23   ar
    11     5     6   am
    12     5    36    1
    13     6     7    2
    14     6     8    1
    15     8     9    1
    16     8    22    1
    17     8    10    1
    18    10    11    1
    19    10    37    1
    20    10    38    1
    21    11    12    1
    22    11    39    1
    23    11    40    1
    24    12    13    1
    25    12    22    1
    26    13    20   ar
    27    13    14   ar
    28    14    15   ar
    29    14    41    1
    30    15    16   ar
    31    15    42    1
    32    16    17    1
    33    16    19   ar
    34    17    18    3
    35    19    20   ar
    36    19    43    1
    37    20    21    1
    38    22    44    1
    39    22    45    1
    40    23    24   ar
    41    23    46    1
    42    24    25   ar
    43    24    47    1
    44    25    26    1
    45    26    27    2
    46    26    28   am
    47    28    29    1
    48    28    48    1
    49    29    30    1
    50    29    31    1
    51    29    49    1
    52    30    50    1
    53    30    51    1
    54    30    52    1
    55    31    53    1
    56    31    54    1
    57    31    55    1
@<TRIPOS>SUBSTRUCTURE
     1 ZINC000587344575        1 TEMP              0 ****  ****    0 ROOT


##########                                Name:    ZINC000840464592
##########                DOCK_Rotatable_Bonds:                  10
##########                         Heavy_Atoms:                  26
##########                    Molecular_Weight:             360.497
##########                DOCK_Rotatable_Bonds:                  10
##########                       Formal_Charge:          -0.0399996
##########                     HBond_Acceptors:                   5
##########                        HBond_Donors:                   1
##########                         Heavy_Atoms:                  26
##########                          Grid_Score:          -30.910828
##########                     Grid_vdw_energy:          -30.481352
##########                      Grid_es_energy:           -0.429475
##########           Internal_energy_repulsive:           83.333328

@<TRIPOS>MOLECULE
ZINC000840464592
 58 59 1 0 0
SMALL
USER_CHARGES


@<TRIPOS>ATOM
      1 C1         -3.1093    2.2134   50.6876 C.3     1  ZINC000840464592   -0.1500
      2 C2         -4.4604    2.9213   50.8079 C.3     1  ZINC000840464592   -0.1300
      3 C3         -5.5810    1.8801   50.8351 C.3     1  ZINC000840464592   -0.1200
      4 C4         -5.4826    1.0584   52.1220 C.3     1  ZINC000840464592   -0.1200
      5 C5         -6.7078    0.1500   52.2421 C.3     1  ZINC000840464592   -0.1200
      6 C6         -7.8698    0.9386   52.8495 C.3     1  ZINC000840464592    0.0600
      7 O7         -8.8575    0.0298   53.3399 O.3     1  ZINC000840464592   -0.3600
      8 C8         -9.7638    0.6086   54.2810 C.3     1  ZINC000840464592    0.0800
      9 H9         -9.2173    1.2731   54.9503 H       1  ZINC000840464592    0.0800
     10 C10       -10.8348    1.4057   53.5336 C.3     1  ZINC000840464592   -0.1800
     11 C11       -10.4201   -0.4846   55.0841 C.2     1  ZINC000840464592    0.5200
     12 O12       -10.4308   -1.6225   54.6645 O.2     1  ZINC000840464592   -0.5000
     13 N13       -10.9954   -0.1979   56.2687 N.am    1  ZINC000840464592   -0.6000
     14 C14       -10.9803    1.1739   56.7702 C.3     1  ZINC000840464592    0.0900
     15 C15       -10.2005    1.2834   58.0757 C.3     1  ZINC000840464592   -0.1600
     16 C16       -10.8743    0.4455   59.1647 C.3     1  ZINC000840464592    0.0800
     17 N17       -10.3399   -0.9200   59.1182 N.am    1  ZINC000840464592   -0.7200
     18 C18       -10.6617   -1.7405   58.1055 C.2     1  ZINC000840464592    0.5100
     19 O19       -10.1792   -2.8513   58.0398 O.2     1  ZINC000840464592   -0.5200
     20 C20       -11.6384   -1.2640   57.0441 C.3     1  ZINC000840464592    0.1400
     21 H21       -11.8954   -2.0932   56.3851 H       1  ZINC000840464592    0.1300
     22 C22       -12.9054   -0.7301   57.7153 C.3     1  ZINC000840464592   -0.1000
     23 C23       -14.1153   -1.3728   57.0877 C.ar    1  ZINC000840464592   -0.0900
     24 C24       -14.7629   -0.7491   56.0377 C.ar    1  ZINC000840464592   -0.1100
     25 C25       -15.8727   -1.3386   55.4620 C.ar    1  ZINC000840464592   -0.1200
     26 C26       -16.3348   -2.5521   55.9360 C.ar    1  ZINC000840464592   -0.1200
     27 C27       -15.6867   -3.1763   56.9853 C.ar    1  ZINC000840464592   -0.1200
     28 C28       -14.5743   -2.5888   57.5583 C.ar    1  ZINC000840464592   -0.1100
     29 H29        -3.0855    1.6300   49.7672 H       1  ZINC000840464592    0.0500
     30 H30        -2.3110    2.9553   50.6681 H       1  ZINC000840464592    0.0500
     31 H31        -2.9690    1.5509   51.5416 H       1  ZINC000840464592    0.0500
     32 H32        -4.4841    3.5048   51.7282 H       1  ZINC000840464592    0.0600
     33 H33        -4.6008    3.5839   49.9538 H       1  ZINC000840464592    0.0600
     34 H34        -6.5467    2.3844   50.7991 H       1  ZINC000840464592    0.0600
     35 H35        -5.4839    1.2192   49.9738 H       1  ZINC000840464592    0.0600
     36 H36        -4.5795    0.4486   52.0955 H       1  ZINC000840464592    0.0600
     37 H37        -5.4426    1.7298   52.9797 H       1  ZINC000840464592    0.0600
     38 H38        -6.9911   -0.2106   51.2532 H       1  ZINC000840464592    0.0700
     39 H39        -6.4698   -0.6983   52.8837 H       1  ZINC000840464592    0.0700
     40 H40        -7.5017    1.5531   53.6709 H       1  ZINC000840464592    0.0500
     41 H41        -8.3124    1.5791   52.0865 H       1  ZINC000840464592    0.0500
     42 H42       -11.5663    1.7877   54.2457 H       1  ZINC000840464592    0.0800
     43 H43       -10.3677    2.2395   53.0097 H       1  ZINC000840464592    0.0700
     44 H44       -11.3335    0.7573   52.8132 H       1  ZINC000840464592    0.0800
     45 H45       -10.5185    1.8208   56.0243 H       1  ZINC000840464592    0.1000
     46 H46       -12.0056    1.5027   56.9392 H       1  ZINC000840464592    0.0800
     47 H47        -9.1835    0.9233   57.9202 H       1  ZINC000840464592    0.0800
     48 H48       -10.1680    2.3263   58.3907 H       1  ZINC000840464592    0.1000
     49 H49       -10.6692    0.8841   60.1413 H       1  ZINC000840464592    0.0900
     50 H50       -11.9504    0.4219   58.9930 H       1  ZINC000840464592    0.1000
     51 H51        -9.7506   -1.2316   59.8228 H       1  ZINC000840464592    0.4000
     52 H52       -12.8798   -0.9654   58.7793 H       1  ZINC000840464592    0.0900
     53 H53       -12.9585    0.3506   57.5835 H       1  ZINC000840464592    0.1000
     54 H54       -14.4019    0.1992   55.6674 H       1  ZINC000840464592    0.1200
     55 H55       -16.3791   -0.8508   54.6421 H       1  ZINC000840464592    0.1200
     56 H56       -17.2024   -3.0125   55.4866 H       1  ZINC000840464592    0.1200
     57 H57       -16.0480   -4.1243   57.3559 H       1  ZINC000840464592    0.1200
     58 H58       -14.0680   -3.0765   58.3781 H       1  ZINC000840464592    0.1200
@<TRIPOS>BOND
     1     1     2    1
     2     1    29    1
     3     1    30    1
     4     1    31    1
     5     2     3    1
     6     2    32    1
     7     2    33    1
     8     3     4    1
     9     3    34    1
    10     3    35    1
    11     4     5    1
    12     4    36    1
    13     4    37    1
    14     5     6    1
    15     5    38    1
    16     5    39    1
    17     6     7    1
    18     6    40    1
    19     6    41    1
    20     7     8    1
    21     8     9    1
    22     8    10    1
    23     8    11    1
    24    10    42    1
    25    10    43    1
    26    10    44    1
    27    11    12    2
    28    11    13   am
    29    13    20    1
    30    13    14    1
    31    14    15    1
    32    14    45    1
    33    14    46    1
    34    15    16    1
    35    15    47    1
    36    15    48    1
    37    16    17    1
    38    16    49    1
    39    16    50    1
    40    17    18   am
    41    17    51    1
    42    18    19    2
    43    18    20    1
    44    20    21    1
    45    20    22    1
    46    22    23    1
    47    22    52    1
    48    22    53    1
    49    23    28   ar
    50    23    24   ar
    51    24    25   ar
    52    24    54    1
    53    25    26   ar
    54    25    55    1
    55    26    27   ar
    56    26    56    1
    57    27    28   ar
    58    27    57    1
    59    28    58    1
@<TRIPOS>SUBSTRUCTURE
     1 ZINC000840464592        1 TEMP              0 ****  ****    0 ROOT


##########                                Name:    ZINC001271977984
##########                DOCK_Rotatable_Bonds:                   7
##########                         Heavy_Atoms:                  24
##########                    Molecular_Weight:             328.371
##########                DOCK_Rotatable_Bonds:                   7
##########                       Formal_Charge:           0.0200001
##########                     HBond_Acceptors:                   7
##########                        HBond_Donors:                   0
##########                         Heavy_Atoms:                  24
##########                          Grid_Score:          -30.878412
##########                     Grid_vdw_energy:          -30.228157
##########                      Grid_es_energy:           -0.650255
##########           Internal_energy_repulsive:           47.338531

@<TRIPOS>MOLECULE
ZINC001271977984
 44 46 1 0 0
SMALL
USER_CHARGES


@<TRIPOS>ATOM
      1 C1        -12.0981    0.2335   53.3867 C.3     1  ZINC001271977984   -0.1800
      2 C2        -10.9317   -0.6890   53.7466 C.3     1  ZINC001271977984    0.1700
      3 H3        -11.1260   -1.6886   53.3580 H       1  ZINC001271977984    0.1100
      4 C4         -9.6611   -0.1523   53.1398 C.2     1  ZINC001271977984    0.2700
      5 N5         -8.6679   -0.8825   52.7301 N.2     1  ZINC001271977984   -0.4700
      6 C6         -7.6951   -0.0658   52.2422 C.ar    1  ZINC001271977984    0.0200
      7 C7         -6.4360   -0.2897   51.6836 C.ar    1  ZINC001271977984   -0.0600
      8 C8         -5.6699    0.7795   51.2757 C.ar    1  ZINC001271977984   -0.1200
      9 C9         -6.1418    2.0759   51.4167 C.ar    1  ZINC001271977984   -0.0900
     10 C10        -7.3843    2.3121   51.9676 C.ar    1  ZINC001271977984   -0.0900
     11 C11        -8.1691    1.2477   52.3832 C.ar    1  ZINC001271977984    0.0100
     12 O12        -9.3961    1.1484   52.9401 O.3     1  ZINC001271977984   -0.2100
     13 N13       -10.7889   -0.7506   55.2074 N.3     1  ZINC001271977984   -0.5300
     14 C14       -10.6003    0.5911   55.7749 C.3     1  ZINC001271977984    0.0000
     15 C15       -11.9408   -1.4248   55.8210 C.3     1  ZINC001271977984    0.0400
     16 C16       -11.4461   -2.5309   56.7552 C.3     1  ZINC001271977984    0.1200
     17 N17       -11.4759   -2.0509   58.1391 N.am    1  ZINC001271977984   -0.6000
     18 C18       -10.2340   -1.6402   58.7988 C.3     1  ZINC001271977984    0.0800
     19 C19       -12.6458   -1.9872   58.8053 C.2     1  ZINC001271977984    0.6000
     20 O20       -12.6704   -1.5887   59.9539 O.2     1  ZINC001271977984   -0.5300
     21 C21       -13.8955   -2.4004   58.1414 C.2     1  ZINC001271977984   -0.0800
     22 C22       -15.1336   -2.4451   58.7046 C.2     1  ZINC001271977984    0.0200
     23 O23       -15.9803   -2.8737   57.7549 O.3     1  ZINC001271977984   -0.2000
     24 C24       -15.2784   -3.0877   56.6330 C.2     1  ZINC001271977984    0.1800
     25 N25       -14.0290   -2.8035   56.8487 N.2     1  ZINC001271977984   -0.4600
     26 H26       -13.0172   -0.1547   53.8256 H       1  ZINC001271977984    0.0800
     27 H27       -11.9039    1.2332   53.7753 H       1  ZINC001271977984    0.0800
     28 H28       -12.2042    0.2793   52.3029 H       1  ZINC001271977984    0.0700
     29 H29        -6.0639   -1.2974   51.5718 H       1  ZINC001271977984    0.1400
     30 H30        -4.6952    0.6073   50.8435 H       1  ZINC001271977984    0.1400
     31 H31        -5.5320    2.9065   51.0932 H       1  ZINC001271977984    0.1400
     32 H32        -7.7452    3.3244   52.0743 H       1  ZINC001271977984    0.1400
     33 H33       -11.4632    1.2121   55.5341 H       1  ZINC001271977984    0.0300
     34 H34       -10.4973    0.5164   56.8574 H       1  ZINC001271977984    0.0700
     35 H35        -9.7007    1.0404   55.3544 H       1  ZINC001271977984    0.1100
     36 H36       -12.5238   -0.7013   56.3911 H       1  ZINC001271977984    0.0500
     37 H37       -12.5650   -1.8603   55.0407 H       1  ZINC001271977984    0.0800
     38 H38       -12.0923   -3.4034   56.6592 H       1  ZINC001271977984    0.0900
     39 H39       -10.4254   -2.8034   56.4871 H       1  ZINC001271977984    0.0900
     40 H40       -10.1127   -0.5610   58.7054 H       1  ZINC001271977984    0.0600
     41 H41       -10.2762   -1.9111   59.8537 H       1  ZINC001271977984    0.0900
     42 H42        -9.3891   -2.1429   58.3280 H       1  ZINC001271977984    0.0700
     43 H43       -15.3868   -2.1856   59.7218 H       1  ZINC001271977984    0.2300
     44 H44       -15.6875   -3.4378   55.6968 H       1  ZINC001271977984    0.2600
@<TRIPOS>BOND
     1     1     2    1
     2     1    26    1
     3     1    27    1
     4     1    28    1
     5     2     3    1
     6     2     4    1
     7     2    13    1
     8     4    12    1
     9     4     5    2
    10     5     6    1
    11     6    11   ar
    12     6     7   ar
    13     7     8   ar
    14     7    29    1
    15     8     9   ar
    16     8    30    1
    17     9    10   ar
    18     9    31    1
    19    10    11   ar
    20    10    32    1
    21    11    12    1
    22    13    14    1
    23    13    15    1
    24    14    33    1
    25    14    34    1
    26    14    35    1
    27    15    16    1
    28    15    36    1
    29    15    37    1
    30    16    17    1
    31    16    38    1
    32    16    39    1
    33    17    18    1
    34    17    19   am
    35    18    40    1
    36    18    41    1
    37    18    42    1
    38    19    20    2
    39    19    21    1
    40    21    25    1
    41    21    22    2
    42    22    23    1
    43    22    43    1
    44    23    24    1
    45    24    25    2
    46    24    44    1
@<TRIPOS>SUBSTRUCTURE
     1 ZINC001271977984        1 TEMP              0 ****  ****    0 ROOT


##########                                Name:    ZINC000190927708
##########                DOCK_Rotatable_Bonds:                  10
##########                         Heavy_Atoms:                  26
##########                    Molecular_Weight:             358.437
##########                DOCK_Rotatable_Bonds:                  10
##########                       Formal_Charge:           0.0499998
##########                     HBond_Acceptors:                   6
##########                        HBond_Donors:                   1
##########                         Heavy_Atoms:                  26
##########                          Grid_Score:          -30.868587
##########                     Grid_vdw_energy:          -29.885765
##########                      Grid_es_energy:           -0.982823
##########           Internal_energy_repulsive:           22.763096

@<TRIPOS>MOLECULE
ZINC000190927708
 52 53 1 0 0
SMALL
USER_CHARGES


@<TRIPOS>ATOM
      1 C1         -6.3826   -0.6160   51.3097 C.3     1  ZINC000190927708   -0.1500
      2 C2         -6.2397    0.8880   51.0678 C.3     1  ZINC000190927708   -0.1500
      3 C3         -5.8139    1.5752   52.3668 C.3     1  ZINC000190927708    0.1000
      4 N4         -4.8663    2.6503   52.0627 N.am    1  ZINC000190927708   -0.5900
      5 C5         -3.6160    2.3518   51.6573 C.2     1  ZINC000190927708    0.5300
      6 O6         -3.2751    1.1933   51.5458 O.2     1  ZINC000190927708   -0.5300
      7 C7         -2.6418    3.4576   51.3428 C.3     1  ZINC000190927708   -0.0800
      8 C8         -1.2979    2.8632   51.0084 C.2     1  ZINC000190927708   -0.1700
      9 C9         -0.2623    3.0064   51.8718 C.2     1  ZINC000190927708    0.0000
     10 C10         1.0301    2.4167   51.5176 C.ar    1  ZINC000190927708   -0.1300
     11 C11         2.1346    2.5304   52.3679 C.ar    1  ZINC000190927708   -0.0500
     12 C12         3.3268    1.9678   52.0085 C.ar    1  ZINC000190927708   -0.1500
     13 C13         3.4515    1.2844   50.8070 C.ar    1  ZINC000190927708   -0.0600
     14 C14         2.3765    1.1603   49.9532 C.ar    1  ZINC000190927708   -0.1600
     15 C15         1.1529    1.7242   50.2980 C.ar    1  ZINC000190927708    0.1900
     16 N16         0.0609    1.6149   49.4634 N.am    1  ZINC000190927708   -0.6300
     17 C17        -1.1236    2.1546   49.8003 C.2     1  ZINC000190927708    0.5500
     18 O18        -2.0676    2.0385   49.0381 O.2     1  ZINC000190927708   -0.5300
     19 C19        -5.2776    4.0497   52.1991 C.3     1  ZINC000190927708    0.1500
     20 H20        -4.4560    4.7007   51.8999 H       1  ZINC000190927708    0.1400
     21 C21        -5.6478    4.3327   53.6564 C.3     1  ZINC000190927708   -0.1300
     22 C22        -4.3772    4.3675   54.5080 C.3     1  ZINC000190927708   -0.1500
     23 C23        -6.4717    4.3106   51.3176 C.2     1  ZINC000190927708    0.4500
     24 O24        -6.3251    4.8474   50.2452 O.2     1  ZINC000190927708   -0.5000
     25 O25        -7.6981    3.9466   51.7239 O.3     1  ZINC000190927708   -0.3500
     26 C26        -8.8144    4.3355   50.8807 C.3     1  ZINC000190927708    0.0600
     27 C27       -10.1239    3.8727   51.5225 C.3     1  ZINC000190927708   -0.1500
     28 H28        -7.1366   -0.7906   52.0771 H       1  ZINC000190927708    0.0600
     29 H29        -6.6858   -1.1056   50.3842 H       1  ZINC000190927708    0.0600
     30 H30        -5.4270   -1.0233   51.6399 H       1  ZINC000190927708    0.0600
     31 H31        -5.4855    1.0626   50.3004 H       1  ZINC000190927708    0.0800
     32 H32        -7.1952    1.2953   50.7376 H       1  ZINC000190927708    0.0700
     33 H33        -6.6909    1.9930   52.8612 H       1  ZINC000190927708    0.0900
     34 H34        -5.3386    0.8472   53.0241 H       1  ZINC000190927708    0.0900
     35 H35        -3.0069    4.0323   50.4915 H       1  ZINC000190927708    0.1100
     36 H36        -2.5441    4.1129   52.2084 H       1  ZINC000190927708    0.1200
     37 H37        -0.3879    3.5439   52.8001 H       1  ZINC000190927708    0.1400
     38 H38         2.0456    3.0608   53.3044 H       1  ZINC000190927708    0.1400
     39 H39         4.1797    2.0560   52.6652 H       1  ZINC000190927708    0.1300
     40 H40         4.4011    0.8456   50.5380 H       1  ZINC000190927708    0.1300
     41 H41         2.4838    0.6265   49.0205 H       1  ZINC000190927708    0.1300
     42 H42         0.1474    1.1384   48.6230 H       1  ZINC000190927708    0.4200
     43 H43        -6.1557    5.2949   53.7220 H       1  ZINC000190927708    0.0900
     44 H44        -6.3090    3.5472   54.0224 H       1  ZINC000190927708    0.0800
     45 H45        -4.6409    4.5690   55.5462 H       1  ZINC000190927708    0.0600
     46 H46        -3.8693    3.4053   54.4423 H       1  ZINC000190927708    0.0600
     47 H47        -3.7159    5.1529   54.1419 H       1  ZINC000190927708    0.0600
     48 H48        -8.8267    5.4201   50.7717 H       1  ZINC000190927708    0.0700
     49 H49        -8.7071    3.8729   49.8996 H       1  ZINC000190927708    0.0700
     50 H50       -10.1116    2.7882   51.6315 H       1  ZINC000190927708    0.0700
     51 H51       -10.2311    4.3353   52.5036 H       1  ZINC000190927708    0.0700
     52 H52       -10.9618    4.1647   50.8895 H       1  ZINC000190927708    0.0800
@<TRIPOS>BOND
     1     1     2    1
     2     1    28    1
     3     1    29    1
     4     1    30    1
     5     2     3    1
     6     2    31    1
     7     2    32    1
     8     3     4    1
     9     3    33    1
    10     3    34    1
    11     4     5   am
    12     4    19    1
    13     5     6    2
    14     5     7    1
    15     7     8    1
    16     7    35    1
    17     7    36    1
    18     8    17    1
    19     8     9    2
    20     9    10    1
    21     9    37    1
    22    10    15   ar
    23    10    11   ar
    24    11    12   ar
    25    11    38    1
    26    12    13   ar
    27    12    39    1
    28    13    14   ar
    29    13    40    1
    30    14    15   ar
    31    14    41    1
    32    15    16    1
    33    16    17   am
    34    16    42    1
    35    17    18    2
    36    19    20    1
    37    19    21    1
    38    19    23    1
    39    21    22    1
    40    21    43    1
    41    21    44    1
    42    22    45    1
    43    22    46    1
    44    22    47    1
    45    23    24    2
    46    23    25    1
    47    25    26    1
    48    26    27    1
    49    26    48    1
    50    26    49    1
    51    27    50    1
    52    27    51    1
    53    27    52    1
@<TRIPOS>SUBSTRUCTURE
     1 ZINC000190927708        1 TEMP              0 ****  ****    0 ROOT


##########                                Name:    ZINC000465392830
##########                DOCK_Rotatable_Bonds:                   8
##########                         Heavy_Atoms:                  29
##########                    Molecular_Weight:             419.588
##########                DOCK_Rotatable_Bonds:                   8
##########                       Formal_Charge:           0.0199996
##########                     HBond_Acceptors:                   7
##########                        HBond_Donors:                   0
##########                         Heavy_Atoms:                  29
##########                          Grid_Score:          -30.866179
##########                     Grid_vdw_energy:          -30.428198
##########                      Grid_es_energy:           -0.437981
##########           Internal_energy_repulsive:           30.860359

@<TRIPOS>MOLECULE
ZINC000465392830
 62 64 1 0 0
SMALL
USER_CHARGES


@<TRIPOS>ATOM
      1 C1         -2.6194    3.2344   55.5947 C.3     1  ZINC000465392830    0.0400
      2 O2         -2.1855    3.0803   54.2176 O.3     1  ZINC000465392830   -0.3600
      3 C3         -1.9729    4.2049   53.5162 C.2     1  ZINC000465392830    0.4600
      4 O4         -2.1428    5.2823   54.0360 O.2     1  ZINC000465392830   -0.4900
      5 C5         -1.5223    4.1235   52.0804 C.3     1  ZINC000465392830    0.1500
      6 H6         -2.1566    4.7534   51.4568 H       1  ZINC000465392830    0.1100
      7 C7         -0.0529    4.5804   51.9648 C.3     1  ZINC000465392830   -0.1100
      8 C8          0.5324    3.6046   50.9099 C.3     1  ZINC000465392830   -0.0900
      9 H9          0.3055    3.9411   49.8982 H       1  ZINC000465392830    0.1000
     10 C10         2.0403    3.4301   51.1012 C.3     1  ZINC000465392830   -0.0800
     11 C11         2.5800    2.4635   50.0452 C.3     1  ZINC000465392830   -0.1200
     12 C12         4.0878    2.2889   50.2366 C.3     1  ZINC000465392830   -0.1200
     13 C13         4.7811    3.6449   50.0885 C.3     1  ZINC000465392830   -0.1200
     14 C14         4.2414    4.6115   51.1445 C.3     1  ZINC000465392830   -0.1200
     15 C15         2.7335    4.7860   50.9532 C.3     1  ZINC000465392830   -0.1200
     16 C16        -0.2256    2.2954   51.2428 C.3     1  ZINC000465392830    0.1000
     17 N17        -1.5878    2.7307   51.6141 N.am    1  ZINC000465392830   -0.6100
     18 C18        -2.7014    1.9751   51.5402 C.2     1  ZINC000465392830    0.5400
     19 O19        -2.6338    0.8331   51.1378 O.2     1  ZINC000465392830   -0.5300
     20 C20        -4.0306    2.5495   51.9578 C.3     1  ZINC000465392830   -0.1300
     21 C21        -5.0916    2.1901   50.9156 C.3     1  ZINC000465392830   -0.0600
     22 C22        -6.3976    1.8977   51.6085 C.ar    1  ZINC000465392830   -0.2000
     23 C23        -7.2666    2.9245   51.9437 C.ar    1  ZINC000465392830    0.2000
     24 C24        -6.9188    4.3544   51.6191 C.3     1  ZINC000465392830   -0.1100
     25 N25        -8.4048    2.6339   52.5514 N.ar    1  ZINC000465392830   -0.5000
     26 C26        -8.7176    1.3785   52.8396 C.ar    1  ZINC000465392830    0.3000
     27 S27       -10.2445    1.0366   53.6498 S.3     1  ZINC000465392830    0.0000
     28 C28       -10.6050   -0.5991   52.9638 C.3     1  ZINC000465392830   -0.1400
     29 N29        -7.9091    0.3740   52.5323 N.ar    1  ZINC000465392830   -0.5300
     30 C30        -6.7583    0.5959   51.9193 C.ar    1  ZINC000465392830    0.2000
     31 C31        -5.8448   -0.5517   51.5735 C.3     1  ZINC000465392830   -0.1100
     32 H32        -1.8659    3.7897   56.1531 H       1  ZINC000465392830    0.0600
     33 H33        -3.5639    3.7780   55.6194 H       1  ZINC000465392830    0.0600
     34 H34        -2.7542    2.2511   56.0453 H       1  ZINC000465392830    0.1000
     35 H35         0.0042    5.6099   51.6114 H       1  ZINC000465392830    0.1000
     36 H36         0.4616    4.4701   52.9194 H       1  ZINC000465392830    0.0800
     37 H37         2.2363    3.0286   52.0955 H       1  ZINC000465392830    0.0800
     38 H38         2.0861    1.4975   50.1507 H       1  ZINC000465392830    0.0600
     39 H39         2.3840    2.8650   49.0510 H       1  ZINC000465392830    0.0700
     40 H40         4.2839    1.8873   51.2308 H       1  ZINC000465392830    0.0600
     41 H41         4.4723    1.6002   49.4842 H       1  ZINC000465392830    0.0600
     42 H42         5.8553    3.5205   50.2249 H       1  ZINC000465392830    0.0600
     43 H43         4.5851    4.0464   49.0943 H       1  ZINC000465392830    0.0600
     44 H44         4.4374    4.2099   52.1388 H       1  ZINC000465392830    0.0600
     45 H45         4.7352    5.5775   51.0390 H       1  ZINC000465392830    0.0600
     46 H46         2.5375    5.1877   49.9589 H       1  ZINC000465392830    0.0700
     47 H47         2.3491    5.4748   51.7055 H       1  ZINC000465392830    0.0600
     48 H48        -0.2617    1.6452   50.3688 H       1  ZINC000465392830    0.0900
     49 H49         0.2512    1.7831   52.0785 H       1  ZINC000465392830    0.0800
     50 H50        -4.3170    2.1367   52.9252 H       1  ZINC000465392830    0.1000
     51 H51        -3.9498    3.6337   52.0350 H       1  ZINC000465392830    0.1000
     52 H52        -5.2239    3.0260   50.2286 H       1  ZINC000465392830    0.0900
     53 H53        -4.7705    1.3096   50.3590 H       1  ZINC000465392830    0.0900
     54 H54        -7.2984    4.6048   50.6286 H       1  ZINC000465392830    0.0900
     55 H55        -7.3706    5.0152   52.3590 H       1  ZINC000465392830    0.0900
     56 H56        -5.8359    4.4776   51.6352 H       1  ZINC000465392830    0.0900
     57 H57       -10.6853   -0.5284   51.8790 H       1  ZINC000465392830    0.0900
     58 H58        -9.8013   -1.2876   53.2245 H       1  ZINC000465392830    0.0900
     59 H59       -11.5456   -0.9660   53.3746 H       1  ZINC000465392830    0.1100
     60 H60        -6.0909   -0.9252   50.5795 H       1  ZINC000465392830    0.0900
     61 H61        -4.8101   -0.2092   51.5870 H       1  ZINC000465392830    0.0900
     62 H62        -5.9726   -1.3507   52.3038 H       1  ZINC000465392830    0.0800
@<TRIPOS>BOND
     1     1     2    1
     2     1    32    1
     3     1    33    1
     4     1    34    1
     5     2     3    1
     6     3     4    2
     7     3     5    1
     8     5     6    1
     9     5    17    1
    10     5     7    1
    11     7     8    1
    12     7    35    1
    13     7    36    1
    14     8     9    1
    15     8    10    1
    16     8    16    1
    17    10    15    1
    18    10    11    1
    19    10    37    1
    20    11    12    1
    21    11    38    1
    22    11    39    1
    23    12    13    1
    24    12    40    1
    25    12    41    1
    26    13    14    1
    27    13    42    1
    28    13    43    1
    29    14    15    1
    30    14    44    1
    31    14    45    1
    32    15    46    1
    33    15    47    1
    34    16    17    1
    35    16    48    1
    36    16    49    1
    37    17    18   am
    38    18    19    2
    39    18    20    1
    40    20    21    1
    41    20    50    1
    42    20    51    1
    43    21    22    1
    44    21    52    1
    45    21    53    1
    46    22    30   ar
    47    22    23   ar
    48    23    24    1
    49    23    25   ar
    50    24    54    1
    51    24    55    1
    52    24    56    1
    53    25    26   ar
    54    26    27    1
    55    26    29   ar
    56    27    28    1
    57    28    57    1
    58    28    58    1
    59    28    59    1
    60    29    30   ar
    61    30    31    1
    62    31    60    1
    63    31    61    1
    64    31    62    1
@<TRIPOS>SUBSTRUCTURE
     1 ZINC000465392830        1 TEMP              0 ****  ****    0 ROOT


##########                                Name:    ZINC001282645012
##########                DOCK_Rotatable_Bonds:                   9
##########                         Heavy_Atoms:                  27
##########                    Molecular_Weight:             372.511
##########                DOCK_Rotatable_Bonds:                   9
##########                       Formal_Charge:          -0.0200004
##########                     HBond_Acceptors:                   6
##########                        HBond_Donors:                   1
##########                         Heavy_Atoms:                  27
##########                          Grid_Score:          -30.854366
##########                     Grid_vdw_energy:          -29.105501
##########                      Grid_es_energy:           -1.748866
##########           Internal_energy_repulsive:           40.761169

@<TRIPOS>MOLECULE
ZINC001282645012
 59 61 1 0 0
SMALL
USER_CHARGES


@<TRIPOS>ATOM
      1 C1        -15.8018    0.4475   58.0101 C.2     1  ZINC001282645012   -0.1900
      2 C2        -15.6042   -0.5085   57.1366 C.2     1  ZINC001282645012   -0.1300
      3 C3        -15.5881   -1.9472   57.5848 C.3     1  ZINC001282645012   -0.0500
      4 C4        -17.0058   -2.3786   57.9655 C.3     1  ZINC001282645012   -0.1500
      5 C5        -15.0748   -2.8305   56.4458 C.3     1  ZINC001282645012   -0.1400
      6 C6        -14.6813   -2.0910   58.7798 C.2     1  ZINC001282645012    0.5500
      7 O7        -15.0777   -2.6554   59.7774 O.2     1  ZINC001282645012   -0.5300
      8 N8        -13.4297   -1.5925   58.7399 N.am    1  ZINC001282645012   -0.6300
      9 C9        -12.6979   -0.8610   57.6506 C.3     1  ZINC001282645012    0.1200
     10 H10       -13.2551   -0.7017   56.7275 H       1  ZINC001282645012    0.1300
     11 C11       -11.4120   -1.7314   57.5181 C.3     1  ZINC001282645012   -0.1300
     12 C12       -11.1661   -2.2328   58.9625 C.3     1  ZINC001282645012   -0.1300
     13 C13       -12.3392   -1.5913   59.7734 C.3     1  ZINC001282645012    0.1200
     14 H14       -12.5798   -2.0788   60.7181 H       1  ZINC001282645012    0.1200
     15 C15       -11.9846   -0.0768   59.8694 C.3     1  ZINC001282645012    0.1300
     16 H16       -12.6477    0.4292   60.5709 H       1  ZINC001282645012    0.1000
     17 N17       -10.5852    0.1014   60.2646 N.am    1  ZINC001282645012   -0.7100
     18 C18       -10.2018    1.2278   60.8976 C.2     1  ZINC001282645012    0.5100
     19 O19       -11.0151    2.0946   61.1387 O.2     1  ZINC001282645012   -0.5100
     20 C20        -8.7627    1.4103   61.3058 C.3     1  ZINC001282645012    0.1200
     21 H21        -8.6796    2.2708   61.9697 H       1  ZINC001282645012    0.1300
     22 C22        -8.2759    0.1556   62.0336 C.3     1  ZINC001282645012   -0.1100
     23 C23        -8.3400    0.3855   63.5448 C.3     1  ZINC001282645012   -0.1000
     24 C24        -7.2546    1.3826   63.9556 C.3     1  ZINC001282645012   -0.1500
     25 C25        -9.7142    0.9452   63.9178 C.3     1  ZINC001282645012   -0.1500
     26 N26        -7.9413    1.6327   60.1132 N.pl3   1  ZINC001282645012   -0.4500
     27 C27        -7.6896    2.8371   59.5135 C.2     1  ZINC001282645012   -0.0600
     28 C28        -6.8941    2.5870   58.4560 C.2     1  ZINC001282645012   -0.0200
     29 N29        -6.6665    1.2660   58.4112 N.2     1  ZINC001282645012   -0.4900
     30 C30        -7.2865    0.6886   59.4038 C.2     1  ZINC001282645012    0.1900
     31 C31       -12.2580    0.4315   58.4022 C.3     1  ZINC001282645012   -0.1400
     32 H32       -15.9532    0.2046   59.0515 H       1  ZINC001282645012    0.1000
     33 H33       -15.8088    1.4788   57.6896 H       1  ZINC001282645012    0.1000
     34 H34       -15.4526   -0.2657   56.0952 H       1  ZINC001282645012    0.1100
     35 H35       -17.6617   -2.2747   57.1012 H       1  ZINC001282645012    0.0700
     36 H36       -16.9942   -3.4193   58.2897 H       1  ZINC001282645012    0.0700
     37 H37       -17.3715   -1.7495   58.7769 H       1  ZINC001282645012    0.0600
     38 H38       -14.0648   -2.5231   56.1746 H       1  ZINC001282645012    0.0600
     39 H39       -15.0632   -3.8712   56.7700 H       1  ZINC001282645012    0.0700
     40 H40       -15.7306   -2.7265   55.5815 H       1  ZINC001282645012    0.0700
     41 H41       -11.5842   -2.5708   56.8444 H       1  ZINC001282645012    0.0800
     42 H42       -10.5730   -1.1270   57.1736 H       1  ZINC001282645012    0.0800
     43 H43       -11.2165   -3.3208   59.0050 H       1  ZINC001282645012    0.0700
     44 H44       -10.2053   -1.8771   59.3341 H       1  ZINC001282645012    0.0800
     45 H45        -9.9345   -0.5914   60.0708 H       1  ZINC001282645012    0.4000
     46 H46        -8.9118   -0.6886   61.7672 H       1  ZINC001282645012    0.0900
     47 H47        -7.2476   -0.0577   61.7418 H       1  ZINC001282645012    0.0800
     48 H48        -8.1798   -0.5599   64.0633 H       1  ZINC001282645012    0.0700
     49 H49        -7.4148    2.3280   63.4371 H       1  ZINC001282645012    0.0600
     50 H50        -7.3002    1.5463   65.0322 H       1  ZINC001282645012    0.0600
     51 H51        -6.2756    0.9838   63.6898 H       1  ZINC001282645012    0.0500
     52 H52       -10.4803    0.1998   63.7039 H       1  ZINC001282645012    0.0600
     53 H53        -9.7311    1.1891   64.9800 H       1  ZINC001282645012    0.0600
     54 H54        -9.9103    1.8452   63.3351 H       1  ZINC001282645012    0.0600
     55 H55        -8.0582    3.8024   59.8278 H       1  ZINC001282645012    0.1700
     56 H56        -6.5073    3.3214   57.7650 H       1  ZINC001282645012    0.1700
     57 H57        -7.2821   -0.3699   59.6184 H       1  ZINC001282645012    0.2000
     58 H58       -11.3437    0.8201   57.9538 H       1  ZINC001282645012    0.0900
     59 H59       -13.0411    1.1895   58.3981 H       1  ZINC001282645012    0.0900
@<TRIPOS>BOND
     1     1     2    2
     2     1    32    1
     3     1    33    1
     4     2     3    1
     5     2    34    1
     6     3     4    1
     7     3     5    1
     8     3     6    1
     9     4    35    1
    10     4    36    1
    11     4    37    1
    12     5    38    1
    13     5    39    1
    14     5    40    1
    15     6     7    2
    16     6     8   am
    17     8    13    1
    18     8     9    1
    19     9    10    1
    20     9    31    1
    21     9    11    1
    22    11    12    1
    23    11    41    1
    24    11    42    1
    25    12    13    1
    26    12    43    1
    27    12    44    1
    28    13    14    1
    29    13    15    1
    30    15    16    1
    31    15    17    1
    32    15    31    1
    33    17    18   am
    34    17    45    1
    35    18    19    2
    36    18    20    1
    37    20    21    1
    38    20    22    1
    39    20    26    1
    40    22    23    1
    41    22    46    1
    42    22    47    1
    43    23    24    1
    44    23    25    1
    45    23    48    1
    46    24    49    1
    47    24    50    1
    48    24    51    1
    49    25    52    1
    50    25    53    1
    51    25    54    1
    52    26    30    1
    53    26    27    1
    54    27    28    2
    55    27    55    1
    56    28    29    1
    57    28    56    1
    58    29    30    2
    59    30    57    1
    60    31    58    1
    61    31    59    1
@<TRIPOS>SUBSTRUCTURE
     1 ZINC001282645012        1 TEMP              0 ****  ****    0 ROOT


##########                                Name:    ZINC000979274057
##########                DOCK_Rotatable_Bonds:                   6
##########                         Heavy_Atoms:                  24
##########                    Molecular_Weight:              330.39
##########                DOCK_Rotatable_Bonds:                   6
##########                       Formal_Charge:          0.00999946
##########                     HBond_Acceptors:                   8
##########                        HBond_Donors:                   1
##########                         Heavy_Atoms:                  24
##########                          Grid_Score:          -30.850836
##########                     Grid_vdw_energy:          -31.632048
##########                      Grid_es_energy:            0.781212
##########           Internal_energy_repulsive:           11.210146

@<TRIPOS>MOLECULE
ZINC000979274057
 46 48 1 0 0
SMALL
USER_CHARGES


@<TRIPOS>ATOM
      1 C1         -9.4866    1.8295   54.5856 C.3     1  ZINC000979274057   -0.1400
      2 C2         -9.2170    1.2268   53.2054 C.3     1  ZINC000979274057    0.1000
      3 H3         -9.6227    1.8841   52.4363 H       1  ZINC000979274057    0.0600
      4 N4         -9.8598   -0.0908   53.1123 N.3     1  ZINC000979274057   -0.6700
      5 C5        -11.2078    0.0204   52.5391 C.3     1  ZINC000979274057    0.1300
      6 C6        -12.2321   -0.2881   53.6006 C.ar    1  ZINC000979274057    0.3200
      7 N7        -13.5102   -0.2840   53.2790 N.ar    1  ZINC000979274057   -0.5200
      8 C8        -14.4379   -0.5503   54.1843 C.ar    1  ZINC000979274057    0.1500
      9 C9        -14.0495   -0.8357   55.4838 C.ar    1  ZINC000979274057   -0.2300
     10 C10       -12.6964   -0.8304   55.7836 C.ar    1  ZINC000979274057    0.1500
     11 N11       -11.8256   -0.5603   54.8244 N.ar    1  ZINC000979274057   -0.5000
     12 C12        -7.7083    1.0738   53.0016 C.3     1  ZINC000979274057    0.0800
     13 H13        -7.2030    1.1313   53.9657 H       1  ZINC000979274057    0.0700
     14 C14        -7.1987    2.1949   52.0887 C.3     1  ZINC000979274057    0.0800
     15 N15        -5.7915    1.9201   51.7576 N.am    1  ZINC000979274057   -0.6000
     16 C16        -4.8448    2.8669   51.9116 C.2     1  ZINC000979274057    0.6100
     17 O17        -5.1484    3.9680   52.3297 O.2     1  ZINC000979274057   -0.5400
     18 C18        -3.4423    2.5683   51.5737 C.2     1  ZINC000979274057   -0.0600
     19 C19        -2.9663    2.2159   50.3449 C.2     1  ZINC000979274057    0.0400
     20 N20        -1.6313    2.0350   50.4777 N.pl3   1  ZINC000979274057   -0.4600
     21 C21        -0.7018    1.6485   49.4134 C.3     1  ZINC000979274057    0.0700
     22 C22        -1.3080    2.2765   51.7749 C.2     1  ZINC000979274057    0.1900
     23 N23        -2.3872    2.5994   52.4274 N.2     1  ZINC000979274057   -0.4600
     24 C24        -5.4483    0.5809   51.2536 C.3     1  ZINC000979274057    0.0500
     25 C25        -6.0433   -0.4616   52.2072 C.3     1  ZINC000979274057    0.0500
     26 O26        -7.4345   -0.1908   52.3935 O.3     1  ZINC000979274057   -0.3600
     27 H27       -10.5614    1.9385   54.7307 H       1  ZINC000979274057    0.0600
     28 H28        -9.0810    1.1721   55.3546 H       1  ZINC000979274057    0.0700
     29 H29        -9.0096    2.8071   54.6547 H       1  ZINC000979274057    0.0600
     30 H30        -9.2923   -0.7331   52.5798 H       1  ZINC000979274057    0.3500
     31 H31       -11.3625    1.0338   52.1686 H       1  ZINC000979274057    0.1000
     32 H32       -11.3124   -0.6871   51.7166 H       1  ZINC000979274057    0.0600
     33 H33       -15.4836   -0.5449   53.9143 H       1  ZINC000979274057    0.1700
     34 H34       -14.7837   -1.0565   56.2445 H       1  ZINC000979274057    0.1500
     35 H35       -12.3570   -1.0478   56.7855 H       1  ZINC000979274057    0.1700
     36 H36        -7.7922    2.2226   51.1749 H       1  ZINC000979274057    0.0700
     37 H37        -7.2741    3.1517   52.6053 H       1  ZINC000979274057    0.1000
     38 H38        -3.5439    2.1027   49.4394 H       1  ZINC000979274057    0.1900
     39 H39        -0.3147    2.5435   48.9262 H       1  ZINC000979274057    0.0800
     40 H40         0.1249    1.0813   49.8412 H       1  ZINC000979274057    0.0900
     41 H41        -1.2238    1.0331   48.6807 H       1  ZINC000979274057    0.0900
     42 H42        -0.3154    2.2146   52.1958 H       1  ZINC000979274057    0.2100
     43 H43        -5.8656    0.4460   50.2557 H       1  ZINC000979274057    0.0700
     44 H44        -4.3647    0.4689   51.2171 H       1  ZINC000979274057    0.1500
     45 H45        -5.9201   -1.4573   51.7809 H       1  ZINC000979274057    0.1100
     46 H46        -5.5312   -0.4103   53.1680 H       1  ZINC000979274057    0.0500
@<TRIPOS>BOND
     1     1     2    1
     2     1    27    1
     3     1    28    1
     4     1    29    1
     5     2     3    1
     6     2     4    1
     7     2    12    1
     8     4     5    1
     9     4    30    1
    10     5     6    1
    11     5    31    1
    12     5    32    1
    13     6    11   ar
    14     6     7   ar
    15     7     8   ar
    16     8     9   ar
    17     8    33    1
    18     9    10   ar
    19     9    34    1
    20    10    11   ar
    21    10    35    1
    22    12    13    1
    23    12    26    1
    24    12    14    1
    25    14    15    1
    26    14    36    1
    27    14    37    1
    28    15    16   am
    29    15    24    1
    30    16    17    2
    31    16    18    1
    32    18    23    1
    33    18    19    2
    34    19    20    1
    35    19    38    1
    36    20    21    1
    37    20    22    1
    38    21    39    1
    39    21    40    1
    40    21    41    1
    41    22    23    2
    42    22    42    1
    43    24    25    1
    44    24    43    1
    45    24    44    1
    46    25    26    1
    47    25    45    1
    48    25    46    1
@<TRIPOS>SUBSTRUCTURE
     1 ZINC000979274057        1 TEMP              0 ****  ****    0 ROOT


##########                                Name:    ZINC000432833246
##########                DOCK_Rotatable_Bonds:                   5
##########                         Heavy_Atoms:                  25
##########                    Molecular_Weight:             400.318
##########                DOCK_Rotatable_Bonds:                   5
##########                       Formal_Charge:        -3.20375e-07
##########                     HBond_Acceptors:                   4
##########                        HBond_Donors:                   1
##########                         Heavy_Atoms:                  25
##########                          Grid_Score:          -30.847471
##########                     Grid_vdw_energy:          -30.680416
##########                      Grid_es_energy:           -0.167055
##########           Internal_energy_repulsive:            6.236627

@<TRIPOS>MOLECULE
ZINC000432833246
 47 51 1 0 0
SMALL
USER_CHARGES


@<TRIPOS>ATOM
      1 O1         -9.0178   -1.1621   52.5914 O.2     1  ZINC000432833246   -0.5200
      2 C2         -8.1286   -0.3615   52.3933 C.2     1  ZINC000432833246    0.5200
      3 C3         -6.8066   -0.6810   51.7307 C.3     1  ZINC000432833246   -0.1500
      4 C4         -6.2327    0.7016   51.3434 C.3     1  ZINC000432833246   -0.1100
      5 H5         -6.5063    0.9652   50.3217 H       1  ZINC000432833246    0.1000
      6 C6         -4.7141    0.7349   51.5265 C.3     1  ZINC000432833246    0.1300
      7 N7         -4.1968    2.0314   51.0819 N.pl3   1  ZINC000432833246   -0.7200
      8 C8         -2.9155    2.4253   51.4369 C.ar    1  ZINC000432833246    0.2800
      9 C9         -2.7000    3.3422   52.4932 C.ar    1  ZINC000432833246   -0.1500
     10 C10        -3.7701    3.8843   53.2185 C.ar    1  ZINC000432833246   -0.0700
     11 C11        -3.5224    4.7640   54.2291 C.ar    1  ZINC000432833246   -0.1300
     12 C12        -2.2185    5.1323   54.5512 C.ar    1  ZINC000432833246   -0.0600
     13 C13        -1.1561    4.6243   53.8666 C.ar    1  ZINC000432833246   -0.0800
     14 Br14        0.6039    5.1415   54.3257 Br      1  ZINC000432833246   -0.0300
     15 C15        -1.3733    3.7132   52.8174 C.ar    1  ZINC000432833246    0.1900
     16 N16        -0.3484    3.1984   52.1289 N.ar    1  ZINC000432833246   -0.5000
     17 C17        -0.5357    2.3469   51.1474 C.ar    1  ZINC000432833246    0.2400
     18 C18         0.6616    1.8036   50.4110 C.3     1  ZINC000432833246   -0.1100
     19 C19         0.6333    1.8540   48.8821 C.3     1  ZINC000432833246   -0.1700
     20 C20         1.5442    2.8041   49.6621 C.3     1  ZINC000432833246   -0.1600
     21 C21        -1.8050    1.9292   50.7720 C.ar    1  ZINC000432833246   -0.2700
     22 C22        -6.9335    1.6296   52.3602 C.3     1  ZINC000432833246    0.1100
     23 N23        -8.1766    0.9401   52.7254 N.am    1  ZINC000432833246   -0.5900
     24 C24        -9.3193    1.5856   53.3764 C.3     1  ZINC000432833246    0.0800
     25 C25       -10.0714    2.6567   52.5840 C.3     1  ZINC000432833246   -0.1900
     26 C26       -10.7119    1.2870   52.8176 C.3     1  ZINC000432833246   -0.1900
     27 H27        -6.1418   -1.1876   52.4303 H       1  ZINC000432833246    0.1100
     28 H28        -6.9634   -1.2917   50.8415 H       1  ZINC000432833246    0.1000
     29 H29        -4.4718    0.5887   52.5792 H       1  ZINC000432833246    0.0800
     30 H30        -4.2593   -0.0599   50.9352 H       1  ZINC000432833246    0.0700
     31 H31        -4.7506    2.6143   50.5393 H       1  ZINC000432833246    0.4000
     32 H32        -4.7855    3.6066   52.9772 H       1  ZINC000432833246    0.1300
     33 H33        -4.3476    5.1811   54.7873 H       1  ZINC000432833246    0.1400
     34 H34        -2.0471    5.8318   55.3559 H       1  ZINC000432833246    0.1400
     35 H35         1.1529    0.9498   50.8776 H       1  ZINC000432833246    0.1300
     36 H36         1.1059    1.0332   48.3426 H       1  ZINC000432833246    0.1000
     37 H37        -0.2513    2.2802   48.4089 H       1  ZINC000432833246    0.1000
     38 H38         1.2590    3.8553   49.7021 H       1  ZINC000432833246    0.0900
     39 H39         2.6162    2.6083   49.6358 H       1  ZINC000432833246    0.1000
     40 H40        -1.9272    1.2272   49.9606 H       1  ZINC000432833246    0.1400
     41 H41        -6.3038    1.7704   53.2387 H       1  ZINC000432833246    0.0800
     42 H42        -7.1599    2.5912   51.8996 H       1  ZINC000432833246    0.0900
     43 H43        -9.2288    1.7266   54.4534 H       1  ZINC000432833246    0.1300
     44 H44       -10.4757    3.5028   53.1395 H       1  ZINC000432833246    0.1000
     45 H45        -9.7160    2.8811   51.5783 H       1  ZINC000432833246    0.1300
     46 H46       -10.7780    0.6104   51.9656 H       1  ZINC000432833246    0.0900
     47 H47       -11.5377    1.2320   53.5270 H       1  ZINC000432833246    0.1000
@<TRIPOS>BOND
     1     1     2    2
     2     2    23   am
     3     2     3    1
     4     3     4    1
     5     3    27    1
     6     3    28    1
     7     4     5    1
     8     4     6    1
     9     4    22    1
    10     6     7    1
    11     6    29    1
    12     6    30    1
    13     7     8    1
    14     7    31    1
    15     8    21   ar
    16     8     9   ar
    17     9    15   ar
    18     9    10   ar
    19    10    11   ar
    20    10    32    1
    21    11    12   ar
    22    11    33    1
    23    12    13   ar
    24    12    34    1
    25    13    14    1
    26    13    15   ar
    27    15    16   ar
    28    16    17   ar
    29    17    18    1
    30    17    21   ar
    31    18    20    1
    32    18    19    1
    33    18    35    1
    34    19    20    1
    35    19    36    1
    36    19    37    1
    37    20    38    1
    38    20    39    1
    39    21    40    1
    40    22    23    1
    41    22    41    1
    42    22    42    1
    43    23    24    1
    44    24    26    1
    45    24    25    1
    46    24    43    1
    47    25    26    1
    48    25    44    1
    49    25    45    1
    50    26    46    1
    51    26    47    1
@<TRIPOS>SUBSTRUCTURE
     1 ZINC000432833246        1 TEMP              0 ****  ****    0 ROOT


##########                                Name:     oleObject15.pdb
##########                DOCK_Rotatable_Bonds:                   9
##########                         Heavy_Atoms:                  29
##########                    Molecular_Weight:             395.545
##########                DOCK_Rotatable_Bonds:                   9
##########                       Formal_Charge:         0.000700183
##########                     HBond_Acceptors:                   5
##########                        HBond_Donors:                   1
##########                         Heavy_Atoms:                  29
##########                          Grid_Score:          -30.846317
##########                     Grid_vdw_energy:          -31.065521
##########                      Grid_es_energy:            0.219203
##########           Internal_energy_repulsive:            9.488021

@<TRIPOS>MOLECULE
oleObject15.pdb
 62 64 1 0 0
SMALL
NO_CHARGES


@<TRIPOS>ATOM
      1 O          -9.9723    0.7586   52.6608 O.3     1  UNL        -0.3745
      2 C          -8.9974    0.0161   53.4275 C.3     1  UNL         0.0600
      3 C          -7.7505   -0.2189   52.5435 C.3     1  UNL         0.0217
      4 N          -7.1867    1.0084   51.9345 N.4     1  UNL        -0.3010
      5 C          -6.6863    2.0075   52.9063 C.3     1  UNL        -0.0010
      6 C          -6.2370    3.3108   52.2104 C.3     1  UNL        -0.0289
      7 C          -5.2055    3.0653   51.0830 C.3     1  UNL         0.0382
      8 C          -5.7141    1.9540   50.1303 C.3     1  UNL        -0.0289
      9 C          -6.2107    0.6903   50.8708 C.3     1  UNL        -0.0010
     10 C          -3.7983    2.7560   51.6515 C.2     1  UNL         0.2156
     11 O          -3.0809    1.9005   51.1654 O.2     1  UNL        -0.2774
     12 N          -3.3059    3.4975   52.7179 N.am    1  UNL        -0.3025
     13 C          -2.0008    3.3520   53.3896 C.3     1  UNL         0.0900
     14 C          -0.8908    4.1549   52.7136 C.ar    1  UNL        -0.0217
     15 C          -0.6175    5.4843   53.0940 C.ar    1  UNL        -0.0568
     16 C           0.3984    6.2123   52.4534 C.ar    1  UNL        -0.0619
     17 C           1.1517    5.6166   51.4298 C.ar    1  UNL        -0.0622
     18 C           0.8897    4.2911   51.0494 C.ar    1  UNL        -0.0619
     19 C          -0.1261    3.5632   51.6903 C.ar    1  UNL        -0.0568
     20 C          -2.0888    3.6961   54.8736 C.ar    1  UNL         0.0652
     21 C          -3.0088    4.6474   55.3608 C.ar    1  UNL        -0.0383
     22 C          -3.0359    4.9273   56.7364 C.ar    1  UNL        -0.0588
     23 C          -2.1412    4.2474   57.5772 C.ar    1  UNL        -0.0438
     24 C          -1.2559    3.3159   57.0083 C.ar    1  UNL         0.0272
     25 N          -1.2284    3.0458   55.6875 N.ar    1  UNL        -0.2590
     26 C         -11.3003    0.9625   53.1989 C.3     1  UNL         0.0599
     27 C         -11.2062    1.7429   54.5340 C.3     1  UNL        -0.0364
     28 C         -12.0349    1.8149   52.1396 C.3     1  UNL        -0.0364
     29 C         -12.0163   -0.3997   53.3774 C.3     1  UNL        -0.0364
     30 H          -9.4065   -0.9567   53.7255 H       1  UNL         0.0581
     31 H          -8.7070    0.5557   54.3355 H       1  UNL         0.0581
     32 H          -8.0357   -0.9174   51.7465 H       1  UNL         0.0455
     33 H          -6.9806   -0.7129   53.1498 H       1  UNL         0.0455
     34 H          -5.8445    1.5868   53.4711 H       1  UNL         0.0431
     35 H          -7.4717    2.2705   53.6244 H       1  UNL         0.0431
     36 H          -5.8301    4.0043   52.9553 H       1  UNL         0.0288
     37 H          -7.1222    3.7975   51.7808 H       1  UNL         0.0288
     38 H          -5.1557    3.9771   50.4820 H       1  UNL         0.0402
     39 H          -4.9276    1.6825   49.4148 H       1  UNL         0.0288
     40 H          -6.5489    2.3544   49.5404 H       1  UNL         0.0288
     41 H          -5.3530    0.1614   51.3048 H       1  UNL         0.0431
     42 H          -6.6706    0.0172   50.1359 H       1  UNL         0.0431
     43 H          -3.8759    4.2840   53.0018 H       1  UNL         0.1504
     44 H          -1.7341    2.2889   53.3336 H       1  UNL         0.0624
     45 H          -1.1980    5.9597   53.8793 H       1  UNL         0.0626
     46 H           0.5997    7.2380   52.7490 H       1  UNL         0.0623
     47 H           1.9371    6.1798   50.9339 H       1  UNL         0.0623
     48 H           1.4735    3.8277   50.2591 H       1  UNL         0.0623
     49 H          -0.3202    2.5375   51.3892 H       1  UNL         0.0626
     50 H          -3.6892    5.1600   54.6876 H       1  UNL         0.0643
     51 H          -3.7337    5.6548   57.1409 H       1  UNL         0.0624
     52 H          -2.1321    4.4372   58.6465 H       1  UNL         0.0639
     53 H          -0.5465    2.7693   57.6287 H       1  UNL         0.0840
     54 H         -10.5833    2.6392   54.4186 H       1  UNL         0.0260
     55 H         -10.7761    1.1267   55.3328 H       1  UNL         0.0260
     56 H         -12.2016    2.0634   54.8666 H       1  UNL         0.0260
     57 H         -11.5178    2.7699   51.9797 H       1  UNL         0.0260
     58 H         -13.0632    2.0344   52.4537 H       1  UNL         0.0260
     59 H         -12.0792    1.2892   51.1771 H       1  UNL         0.0260
     60 H         -11.5604   -0.9917   54.1806 H       1  UNL         0.0260
     61 H         -11.9746   -0.9872   52.4512 H       1  UNL         0.0260
     62 H         -13.0723   -0.2515   53.6363 H       1  UNL         0.0260
@<TRIPOS>BOND
     1     1     2    1
     2     1    26    1
     3     2     3    1
     4     2    30    1
     5     2    31    1
     6     3     4    1
     7     3    32    1
     8     3    33    1
     9     4     5    1
    10     4     9    1
    11     5     6    1
    12     5    34    1
    13     5    35    1
    14     6     7    1
    15     6    36    1
    16     6    37    1
    17     7     8    1
    18     7    10    1
    19     7    38    1
    20     8     9    1
    21     8    39    1
    22     8    40    1
    23     9    41    1
    24     9    42    1
    25    10    11    2
    26    10    12   am
    27    12    13    1
    28    12    43    1
    29    13    14    1
    30    13    20    1
    31    13    44    1
    32    14    15   ar
    33    14    19   ar
    34    15    16   ar
    35    15    45    1
    36    16    17   ar
    37    16    46    1
    38    17    18   ar
    39    17    47    1
    40    18    19   ar
    41    18    48    1
    42    19    49    1
    43    20    21   ar
    44    20    25   ar
    45    21    22   ar
    46    21    50    1
    47    22    23   ar
    48    22    51    1
    49    23    24   ar
    50    23    52    1
    51    24    25   ar
    52    24    53    1
    53    26    27    1
    54    26    28    1
    55    26    29    1
    56    27    54    1
    57    27    55    1
    58    27    56    1
    59    28    57    1
    60    28    58    1
    61    28    59    1
    62    29    60    1
    63    29    61    1
    64    29    62    1
@<TRIPOS>SUBSTRUCTURE
     1 UNL         1 TEMP              0 ****  ****    0 ROOT


##########                                Name:    ZINC001009984555
##########                DOCK_Rotatable_Bonds:                   7
##########                         Heavy_Atoms:                  23
##########                    Molecular_Weight:             338.446
##########                DOCK_Rotatable_Bonds:                   7
##########                       Formal_Charge:           0.0400002
##########                     HBond_Acceptors:                   6
##########                        HBond_Donors:                   1
##########                         Heavy_Atoms:                  23
##########                          Grid_Score:          -30.813683
##########                     Grid_vdw_energy:          -29.794773
##########                      Grid_es_energy:           -1.018910
##########           Internal_energy_repulsive:           14.167629

@<TRIPOS>MOLECULE
ZINC001009984555
 46 47 1 0 0
SMALL
USER_CHARGES


@<TRIPOS>ATOM
      1 C1        -10.0901    4.3259   49.2606 C.3     1  ZINC001009984555   -0.1400
      2 S2         -8.3267    4.6647   49.5183 S.3     1  ZINC001009984555   -0.1800
      3 C3         -8.2617    5.1913   51.2529 C.3     1  ZINC001009984555   -0.1300
      4 C4         -8.7730    4.0811   52.1345 C.2     1  ZINC001009984555    0.5500
      5 O5         -9.7578    4.2562   52.8204 O.2     1  ZINC001009984555   -0.5100
      6 N6         -8.1361    2.8936   52.1607 N.am    1  ZINC001009984555   -0.6100
      7 C7         -6.9290    2.5490   51.3877 C.3     1  ZINC001009984555    0.1000
      8 C8         -6.2600    1.4030   52.1871 C.3     1  ZINC001009984555   -0.1100
      9 H9         -5.6783    1.7960   53.0209 H       1  ZINC001009984555    0.1000
     10 C10        -5.3900    0.5343   51.2764 C.3     1  ZINC001009984555    0.1300
     11 N11        -3.9958    0.9753   51.3673 N.am    1  ZINC001009984555   -0.7300
     12 C12        -3.5140    1.8727   50.4846 C.2     1  ZINC001009984555    0.5600
     13 O13        -4.2365    2.3171   49.6140 O.2     1  ZINC001009984555   -0.5200
     14 C14        -2.1066    2.3165   50.5753 C.ar    1  ZINC001009984555   -0.1200
     15 C15        -1.1225    1.6850   49.8135 C.ar    1  ZINC001009984555   -0.0900
     16 C16         0.1896    2.1030   49.9018 C.ar    1  ZINC001009984555   -0.1000
     17 C17         0.5318    3.1456   50.7433 C.ar    1  ZINC001009984555   -0.1200
     18 C18        -0.4397    3.7779   51.5031 C.ar    1  ZINC001009984555    0.0900
     19 F19        -0.0983    4.7958   52.3232 F       1  ZINC001009984555   -0.1300
     20 C20        -1.7579    3.3724   51.4186 C.ar    1  ZINC001009984555   -0.0500
     21 C21        -2.8142    4.0600   52.2447 C.3     1  ZINC001009984555   -0.1200
     22 C22        -7.4961    0.6142   52.6943 C.3     1  ZINC001009984555   -0.1200
     23 C23        -8.5262    1.7297   52.9697 C.3     1  ZINC001009984555    0.1400
     24 H24        -9.5213    1.3964   52.6749 H       1  ZINC001009984555    0.0800
     25 C25        -8.5178    2.0902   54.4565 C.3     1  ZINC001009984555   -0.1700
     26 H26       -10.6651    5.2333   49.4448 H       1  ZINC001009984555    0.0800
     27 H27       -10.2505    3.9962   48.2342 H       1  ZINC001009984555    0.1100
     28 H28       -10.4142    3.5446   49.9480 H       1  ZINC001009984555    0.0800
     29 H29        -7.2319    5.4249   51.5234 H       1  ZINC001009984555    0.1100
     30 H30        -8.8825    6.0770   51.3874 H       1  ZINC001009984555    0.1100
     31 H31        -7.2026    2.2060   50.3899 H       1  ZINC001009984555    0.0800
     32 H32        -6.2607    3.4078   51.3246 H       1  ZINC001009984555    0.0800
     33 H33        -5.4627   -0.5072   51.5898 H       1  ZINC001009984555    0.0800
     34 H34        -5.7346    0.6288   50.2466 H       1  ZINC001009984555    0.0800
     35 H35        -3.4196    0.6216   52.0628 H       1  ZINC001009984555    0.4000
     36 H36        -1.3874    0.8700   49.1562 H       1  ZINC001009984555    0.1300
     37 H37         0.9513    1.6143   49.3123 H       1  ZINC001009984555    0.1400
     38 H38         1.5605    3.4682   50.8091 H       1  ZINC001009984555    0.1400
     39 H39        -3.3115    4.8185   51.6402 H       1  ZINC001009984555    0.0800
     40 H40        -3.5465    3.3264   52.5818 H       1  ZINC001009984555    0.1000
     41 H41        -2.3486    4.5325   53.1096 H       1  ZINC001009984555    0.0600
     42 H42        -7.8587   -0.0697   51.9268 H       1  ZINC001009984555    0.0900
     43 H43        -7.2598    0.0754   53.6119 H       1  ZINC001009984555    0.0900
     44 H44        -7.5248    2.4395   54.7401 H       1  ZINC001009984555    0.0600
     45 H45        -9.2472    2.8782   54.6434 H       1  ZINC001009984555    0.0700
     46 H46        -8.7750    1.2098   55.0453 H       1  ZINC001009984555    0.0700
@<TRIPOS>BOND
     1     1     2    1
     2     1    26    1
     3     1    27    1
     4     1    28    1
     5     2     3    1
     6     3     4    1
     7     3    29    1
     8     3    30    1
     9     4     5    2
    10     4     6   am
    11     6    23    1
    12     6     7    1
    13     7     8    1
    14     7    31    1
    15     7    32    1
    16     8     9    1
    17     8    10    1
    18     8    22    1
    19    10    11    1
    20    10    33    1
    21    10    34    1
    22    11    12   am
    23    11    35    1
    24    12    13    2
    25    12    14    1
    26    14    20   ar
    27    14    15   ar
    28    15    16   ar
    29    15    36    1
    30    16    17   ar
    31    16    37    1
    32    17    18   ar
    33    17    38    1
    34    18    19    1
    35    18    20   ar
    36    20    21    1
    37    21    39    1
    38    21    40    1
    39    21    41    1
    40    22    23    1
    41    22    42    1
    42    22    43    1
    43    23    24    1
    44    23    25    1
    45    25    44    1
    46    25    45    1
    47    25    46    1
@<TRIPOS>SUBSTRUCTURE
     1 ZINC001009984555        1 TEMP              0 ****  ****    0 ROOT


##########                                Name:    ZINC000949401225
##########                DOCK_Rotatable_Bonds:                   7
##########                         Heavy_Atoms:                  24
##########                    Molecular_Weight:             332.403
##########                DOCK_Rotatable_Bonds:                   7
##########                       Formal_Charge:                0.03
##########                     HBond_Acceptors:                   7
##########                        HBond_Donors:                   1
##########                         Heavy_Atoms:                  24
##########                          Grid_Score:          -30.808517
##########                     Grid_vdw_energy:          -28.144030
##########                      Grid_es_energy:           -2.664488
##########           Internal_energy_repulsive:           11.567402

@<TRIPOS>MOLECULE
ZINC000949401225
 48 50 1 0 0
SMALL
USER_CHARGES


@<TRIPOS>ATOM
      1 C1         -6.4548   -0.9131   51.8043 C.3     1  ZINC000949401225    0.0700
      2 N2         -7.1240    0.0972   52.6275 N.pl3   1  ZINC000949401225   -0.4500
      3 C3         -8.4628    0.1277   52.8894 C.2     1  ZINC000949401225   -0.0100
      4 C4         -8.7282    1.1871   53.6742 C.2     1  ZINC000949401225   -0.1700
      5 C5         -7.4449    1.8575   53.9100 C.2     1  ZINC000949401225   -0.2400
      6 C6         -7.2144    3.0705   54.7126 C.2     1  ZINC000949401225    0.5900
      7 O7         -8.1317    3.5720   55.3340 O.2     1  ZINC000949401225   -0.5500
      8 N8         -5.9867    3.6249   54.7584 N.am    1  ZINC000949401225   -0.7300
      9 C9         -5.7577    4.8326   55.5554 C.3     1  ZINC000949401225    0.1200
     10 C10        -4.2769    4.9238   55.9293 C.3     1  ZINC000949401225    0.1200
     11 H11        -4.0491    5.7994   56.5372 H       1  ZINC000949401225    0.1000
     12 C12        -3.7094    3.6176   56.5020 C.3     1  ZINC000949401225   -0.1500
     13 C13        -2.4759    3.9986   55.6717 C.3     1  ZINC000949401225    0.1000
     14 N14        -3.3717    4.7554   54.7825 N.am    1  ZINC000949401225   -0.6400
     15 C15        -3.3656    5.1279   53.4872 C.2     1  ZINC000949401225    0.5500
     16 O16        -4.2891    5.7727   53.0373 O.2     1  ZINC000949401225   -0.5200
     17 C17        -2.2113    4.7432   52.5981 C.3     1  ZINC000949401225   -0.1400
     18 C18        -2.3850    3.2954   52.1348 C.3     1  ZINC000949401225    0.1500
     19 H19        -2.4568    2.6305   52.9956 H       1  ZINC000949401225    0.0900
     20 C20        -3.6456    3.1643   51.2515 C.3     1  ZINC000949401225   -0.1200
     21 C21        -3.1974    2.1055   50.2176 C.3     1  ZINC000949401225   -0.1600
     22 C22        -1.6894    2.2239   50.1951 C.2     1  ZINC000949401225    0.5200
     23 O23        -0.9702    1.7755   49.3276 O.2     1  ZINC000949401225   -0.5300
     24 N24        -1.2614    2.8979   51.2783 N.am    1  ZINC000949401225   -0.6200
     25 C25         0.1440    3.1981   51.5632 C.3     1  ZINC000949401225    0.0900
     26 C26        -6.5049    1.1252   53.2387 C.2     1  ZINC000949401225    0.0800
     27 H27        -6.1437   -1.7467   52.4337 H       1  ZINC000949401225    0.0800
     28 H28        -7.1432   -1.2725   51.0393 H       1  ZINC000949401225    0.0900
     29 H29        -5.5799   -0.4715   51.3272 H       1  ZINC000949401225    0.0900
     30 H30        -9.1904   -0.5827   52.5258 H       1  ZINC000949401225    0.1700
     31 H31        -9.6940    1.4852   54.0548 H       1  ZINC000949401225    0.1500
     32 H32        -5.2549    3.2242   54.2638 H       1  ZINC000949401225    0.4000
     33 H33        -6.0405    5.7104   54.9743 H       1  ZINC000949401225    0.0700
     34 H34        -6.3596    4.7885   56.4631 H       1  ZINC000949401225    0.0900
     35 H35        -3.5460    3.6358   57.5794 H       1  ZINC000949401225    0.1000
     36 H36        -4.2205    2.7190   56.1566 H       1  ZINC000949401225    0.1000
     37 H37        -1.7675    4.6279   56.2106 H       1  ZINC000949401225    0.0900
     38 H38        -1.9994    3.1468   55.1863 H       1  ZINC000949401225    0.0800
     39 H39        -2.1860    5.4019   51.7300 H       1  ZINC000949401225    0.1000
     40 H40        -1.2780    4.8375   53.1532 H       1  ZINC000949401225    0.1000
     41 H41        -4.4944    2.8060   51.8338 H       1  ZINC000949401225    0.1000
     42 H42        -3.8804    4.1105   50.7641 H       1  ZINC000949401225    0.0800
     43 H43        -3.4970    1.1079   50.5388 H       1  ZINC000949401225    0.1100
     44 H44        -3.6124    2.3317   49.2354 H       1  ZINC000949401225    0.1000
     45 H45         0.7624    2.8681   50.7284 H       1  ZINC000949401225    0.0800
     46 H46         0.2650    4.2724   51.7026 H       1  ZINC000949401225    0.0600
     47 H47         0.4501    2.6772   52.4704 H       1  ZINC000949401225    0.0600
     48 H48        -5.4470    1.3388   53.1998 H       1  ZINC000949401225    0.1800
@<TRIPOS>BOND
     1     1     2    1
     2     1    27    1
     3     1    28    1
     4     1    29    1
     5     2    26    1
     6     2     3    1
     7     3     4    2
     8     3    30    1
     9     4     5    1
    10     4    31    1
    11     5     6    1
    12     5    26    2
    13     6     7    2
    14     6     8   am
    15     8     9    1
    16     8    32    1
    17     9    10    1
    18     9    33    1
    19     9    34    1
    20    10    11    1
    21    10    14    1
    22    10    12    1
    23    12    13    1
    24    12    35    1
    25    12    36    1
    26    13    14    1
    27    13    37    1
    28    13    38    1
    29    14    15   am
    30    15    16    2
    31    15    17    1
    32    17    18    1
    33    17    39    1
    34    17    40    1
    35    18    19    1
    36    18    24    1
    37    18    20    1
    38    20    21    1
    39    20    41    1
    40    20    42    1
    41    21    22    1
    42    21    43    1
    43    21    44    1
    44    22    23    2
    45    22    24   am
    46    24    25    1
    47    25    45    1
    48    25    46    1
    49    25    47    1
    50    26    48    1
@<TRIPOS>SUBSTRUCTURE
     1 ZINC000949401225        1 TEMP              0 ****  ****    0 ROOT


##########                                Name:    ZINC000469435497
##########                DOCK_Rotatable_Bonds:                   6
##########                         Heavy_Atoms:                  27
##########                    Molecular_Weight:             364.444
##########                DOCK_Rotatable_Bonds:                   6
##########                       Formal_Charge:           0.0300001
##########                     HBond_Acceptors:                   5
##########                        HBond_Donors:                   2
##########                         Heavy_Atoms:                  27
##########                          Grid_Score:          -30.806559
##########                     Grid_vdw_energy:          -27.957296
##########                      Grid_es_energy:           -2.849263
##########           Internal_energy_repulsive:            5.402133

@<TRIPOS>MOLECULE
ZINC000469435497
 51 54 1 0 0
SMALL
USER_CHARGES


@<TRIPOS>ATOM
      1 C1         -5.6956    0.8382   51.3870 C.3     1  ZINC000469435497   -0.1600
      2 C2         -5.3357    2.2288   50.8602 C.3     1  ZINC000469435497    0.1000
      3 C3         -6.5991    3.0160   50.5070 C.3     1  ZINC000469435497   -0.1400
      4 C4         -4.4752    2.9989   51.8896 C.3     1  ZINC000469435497   -0.1000
      5 C5         -3.0677    2.6646   51.4345 C.ar    1  ZINC000469435497   -0.1500
      6 C6         -1.8438    2.7903   52.0520 C.ar    1  ZINC000469435497   -0.0700
      7 C7         -0.6893    2.3893   51.3907 C.ar    1  ZINC000469435497    0.1100
      8 N8          0.5593    2.5144   52.0140 N.am    1  ZINC000469435497   -0.6600
      9 C9          1.4854    3.3513   51.5056 C.2     1  ZINC000469435497    0.5100
     10 O10         1.2380    3.9959   50.5084 O.2     1  ZINC000469435497   -0.5200
     11 C11         2.8284    3.4859   52.1759 C.3     1  ZINC000469435497    0.1000
     12 N12         2.6709    3.3190   53.6228 N.am    1  ZINC000469435497   -0.7200
     13 C13         3.6527    2.7444   54.3456 C.2     1  ZINC000469435497    0.5700
     14 O14         4.6682    2.3635   53.7968 O.2     1  ZINC000469435497   -0.5300
     15 C15         3.4945    2.5775   55.8061 C.ar    1  ZINC000469435497   -0.1400
     16 C16         4.5080    1.9822   56.5582 C.ar    1  ZINC000469435497   -0.0800
     17 C17         4.3519    1.8307   57.9194 C.ar    1  ZINC000469435497   -0.1100
     18 C18         3.1943    2.2660   58.5456 C.ar    1  ZINC000469435497   -0.0700
     19 C19         2.7923    2.2121   60.0045 C.3     1  ZINC000469435497   -0.0900
     20 C20         1.6323    3.2208   60.1417 C.3     1  ZINC000469435497   -0.1200
     21 C21         1.0390    3.2399   58.7171 C.3     1  ZINC000469435497   -0.0800
     22 C22         2.1854    2.8573   57.8051 C.ar    1  ZINC000469435497   -0.1100
     23 C23         2.3338    3.0194   56.4409 C.ar    1  ZINC000469435497   -0.0400
     24 C24        -0.7802    1.8638   50.1090 C.ar    1  ZINC000469435497   -0.1000
     25 C25        -2.0078    1.7431   49.4924 C.ar    1  ZINC000469435497   -0.1200
     26 C26        -3.1675    2.1463   50.1494 C.ar    1  ZINC000469435497    0.1000
     27 O27        -4.4613    2.1320   49.7231 O.3     1  ZINC000469435497   -0.3000
     28 H28        -4.7845    0.3066   51.6617 H       1  ZINC000469435497    0.0600
     29 H29        -6.3370    0.9362   52.2629 H       1  ZINC000469435497    0.0800
     30 H30        -6.2218    0.2810   50.6120 H       1  ZINC000469435497    0.0700
     31 H31        -7.2136    3.1364   51.3992 H       1  ZINC000469435497    0.0800
     32 H32        -6.3204    3.9972   50.1227 H       1  ZINC000469435497    0.0700
     33 H33        -7.1636    2.4753   49.7474 H       1  ZINC000469435497    0.0700
     34 H34        -4.6603    4.0713   51.8274 H       1  ZINC000469435497    0.0900
     35 H35        -4.6554    2.6320   52.9001 H       1  ZINC000469435497    0.0900
     36 H36        -1.7809    3.2006   53.0490 H       1  ZINC000469435497    0.1400
     37 H37         0.7571    1.9989   52.8115 H       1  ZINC000469435497    0.4200
     38 H38         3.5037    2.7208   51.7933 H       1  ZINC000469435497    0.1100
     39 H39         3.2415    4.4727   51.9669 H       1  ZINC000469435497    0.1100
     40 H40         1.8600    3.6219   54.0606 H       1  ZINC000469435497    0.4100
     41 H41         5.4119    1.6410   56.0753 H       1  ZINC000469435497    0.1300
     42 H42         5.1361    1.3696   58.5015 H       1  ZINC000469435497    0.1300
     43 H43         2.4547    1.2094   60.2670 H       1  ZINC000469435497    0.0900
     44 H44         3.6281    2.5086   60.6384 H       1  ZINC000469435497    0.0800
     45 H45         0.8956    2.8681   60.8635 H       1  ZINC000469435497    0.0800
     46 H46         2.0067    4.2062   60.4187 H       1  ZINC000469435497    0.0700
     47 H47         0.2309    2.5132   58.6342 H       1  ZINC000469435497    0.0800
     48 H48         0.6774    4.2384   58.4714 H       1  ZINC000469435497    0.0800
     49 H49         1.5484    3.4860   55.8647 H       1  ZINC000469435497    0.1400
     50 H50         0.1143    1.5483   49.5925 H       1  ZINC000469435497    0.1400
     51 H51        -2.0702    1.3336   48.4949 H       1  ZINC000469435497    0.1300
@<TRIPOS>BOND
     1     1     2    1
     2     1    28    1
     3     1    29    1
     4     1    30    1
     5     2    27    1
     6     2     3    1
     7     2     4    1
     8     3    31    1
     9     3    32    1
    10     3    33    1
    11     4     5    1
    12     4    34    1
    13     4    35    1
    14     5    26   ar
    15     5     6   ar
    16     6     7   ar
    17     6    36    1
    18     7     8    1
    19     7    24   ar
    20     8     9   am
    21     8    37    1
    22     9    10    2
    23     9    11    1
    24    11    12    1
    25    11    38    1
    26    11    39    1
    27    12    13   am
    28    12    40    1
    29    13    14    2
    30    13    15    1
    31    15    23   ar
    32    15    16   ar
    33    16    17   ar
    34    16    41    1
    35    17    18   ar
    36    17    42    1
    37    18    22   ar
    38    18    19    1
    39    19    20    1
    40    19    43    1
    41    19    44    1
    42    20    21    1
    43    20    45    1
    44    20    46    1
    45    21    22    1
    46    21    47    1
    47    21    48    1
    48    22    23   ar
    49    23    49    1
    50    24    25   ar
    51    24    50    1
    52    25    26   ar
    53    25    51    1
    54    26    27    1
@<TRIPOS>SUBSTRUCTURE
     1 ZINC000469435497        1 TEMP              0 ****  ****    0 ROOT


##########                                Name:    ZINC000432058199
##########                DOCK_Rotatable_Bonds:                   5
##########                         Heavy_Atoms:                  30
##########                    Molecular_Weight:             406.441
##########                DOCK_Rotatable_Bonds:                   5
##########                       Formal_Charge:        -4.02331e-07
##########                     HBond_Acceptors:                   8
##########                        HBond_Donors:                   1
##########                         Heavy_Atoms:                  30
##########                          Grid_Score:          -30.785877
##########                     Grid_vdw_energy:          -30.800360
##########                      Grid_es_energy:            0.014483
##########           Internal_energy_repulsive:           16.438351

@<TRIPOS>MOLECULE
ZINC000432058199
 52 55 1 0 0
SMALL
USER_CHARGES


@<TRIPOS>ATOM
      1 C1        -10.9050   -1.5234   59.3348 C.3     1  ZINC000432058199    0.0300
      2 O2        -10.1914   -0.8742   60.3890 O.3     1  ZINC000432058199   -0.3100
      3 C3         -9.3404    0.1243   60.0343 C.ar    1  ZINC000432058199    0.1300
      4 C4         -8.6123    0.7940   61.0078 C.ar    1  ZINC000432058199   -0.1900
      5 C5         -7.7454    1.8102   60.6514 C.ar    1  ZINC000432058199   -0.0800
      6 C6         -7.5994    2.1646   59.3254 C.ar    1  ZINC000432058199   -0.1100
      7 C7         -8.3265    1.4968   58.3417 C.ar    1  ZINC000432058199    0.0100
      8 C8         -8.1709    1.8756   56.9150 C.2     1  ZINC000432058199    0.2100
      9 N9         -7.2434    2.6491   56.4140 N.2     1  ZINC000432058199   -0.3700
     10 O10        -7.3954    2.7599   55.2158 O.3     1  ZINC000432058199    0.1200
     11 C11        -8.4592    2.0527   54.8220 C.2     1  ZINC000432058199    0.1600
     12 C12        -8.9811    1.9302   53.4136 C.3     1  ZINC000432058199    0.2500
     13 H13        -9.7285    2.7032   53.2346 H       1  ZINC000432058199    0.1500
     14 C14        -9.6173    0.5518   53.2236 C.3     1  ZINC000432058199   -0.1700
     15 N15        -7.8748    2.0921   52.4670 N.am    1  ZINC000432058199   -0.5800
     16 C16        -7.8145    3.0537   51.5387 C.2     1  ZINC000432058199    0.7000
     17 O17        -8.6757    3.8970   51.3827 O.2     1  ZINC000432058199   -0.5100
     18 N18        -6.6942    2.9828   50.7974 N.am    1  ZINC000432058199   -0.7200
     19 C19        -5.9262    1.8321   51.3034 C.3     1  ZINC000432058199    0.1400
     20 H20        -5.7982    1.0829   50.5221 H       1  ZINC000432058199    0.1400
     21 C21        -4.5874    2.2790   51.8316 C.ar    1  ZINC000432058199   -0.1000
     22 C22        -3.4442    2.0696   51.0830 C.ar    1  ZINC000432058199   -0.1000
     23 C23        -2.2161    2.4795   51.5675 C.ar    1  ZINC000432058199   -0.0800
     24 C24        -0.9698    2.2509   50.7518 C.3     1  ZINC000432058199   -0.1200
     25 C25        -2.1313    3.0996   52.8001 C.ar    1  ZINC000432058199   -0.1100
     26 C26        -3.2746    3.3093   53.5484 C.ar    1  ZINC000432058199   -0.0800
     27 C27        -3.1821    3.9849   54.8924 C.3     1  ZINC000432058199   -0.1200
     28 C28        -4.5031    2.9032   53.0620 C.ar    1  ZINC000432058199   -0.1000
     29 C29        -6.7894    1.2942   52.4275 C.2     1  ZINC000432058199    0.5300
     30 O30        -6.5549    0.3412   53.1392 O.2     1  ZINC000432058199   -0.4500
     31 N31        -8.9586    1.4808   55.8893 N.2     1  ZINC000432058199   -0.4500
     32 C32        -9.1955    0.4698   58.7005 C.ar    1  ZINC000432058199   -0.1200
     33 H33       -11.5473   -2.2979   59.7540 H       1  ZINC000432058199    0.1000
     34 H34       -11.5160   -0.7921   58.8054 H       1  ZINC000432058199    0.0600
     35 H35       -10.1963   -1.9753   58.6408 H       1  ZINC000432058199    0.0600
     36 H36        -8.7234    0.5206   62.0467 H       1  ZINC000432058199    0.1400
     37 H37        -7.1813    2.3287   61.4126 H       1  ZINC000432058199    0.1400
     38 H38        -6.9219    2.9594   59.0502 H       1  ZINC000432058199    0.1400
     39 H39        -8.8700   -0.2211   53.4025 H       1  ZINC000432058199    0.0900
     40 H40       -10.4405    0.4313   53.9279 H       1  ZINC000432058199    0.0900
     41 H41        -9.9949    0.4633   52.2049 H       1  ZINC000432058199    0.0900
     42 H42        -6.4416    3.5738   50.0709 H       1  ZINC000432058199    0.4500
     43 H43        -3.5105    1.5856   50.1199 H       1  ZINC000432058199    0.1200
     44 H44        -0.7967    3.1104   50.1041 H       1  ZINC000432058199    0.0700
     45 H45        -0.1177    2.1211   51.4189 H       1  ZINC000432058199    0.0700
     46 H46        -1.0937    1.3558   50.1422 H       1  ZINC000432058199    0.0700
     47 H47        -1.1719    3.4198   53.1786 H       1  ZINC000432058199    0.1300
     48 H48        -3.2872    5.0623   54.7654 H       1  ZINC000432058199    0.0700
     49 H49        -3.9775    3.6159   55.5399 H       1  ZINC000432058199    0.0700
     50 H50        -2.2146    3.7648   55.3438 H       1  ZINC000432058199    0.0700
     51 H51        -5.3963    3.0671   53.6466 H       1  ZINC000432058199    0.1300
     52 H52        -9.7612   -0.0506   57.9419 H       1  ZINC000432058199    0.1400
@<TRIPOS>BOND
     1     1     2    1
     2     1    33    1
     3     1    34    1
     4     1    35    1
     5     2     3    1
     6     3    32   ar
     7     3     4   ar
     8     4     5   ar
     9     4    36    1
    10     5     6   ar
    11     5    37    1
    12     6     7   ar
    13     6    38    1
    14     7     8    1
    15     7    32   ar
    16     8    31    1
    17     8     9    2
    18     9    10    1
    19    10    11    1
    20    11    12    1
    21    11    31    2
    22    12    13    1
    23    12    14    1
    24    12    15    1
    25    14    39    1
    26    14    40    1
    27    14    41    1
    28    15    29   am
    29    15    16   am
    30    16    17    2
    31    16    18   am
    32    18    19    1
    33    18    42    1
    34    19    20    1
    35    19    21    1
    36    19    29    1
    37    21    28   ar
    38    21    22   ar
    39    22    23   ar
    40    22    43    1
    41    23    24    1
    42    23    25   ar
    43    24    44    1
    44    24    45    1
    45    24    46    1
    46    25    26   ar
    47    25    47    1
    48    26    27    1
    49    26    28   ar
    50    27    48    1
    51    27    49    1
    52    27    50    1
    53    28    51    1
    54    29    30    2
    55    32    52    1
@<TRIPOS>SUBSTRUCTURE
     1 ZINC000432058199        1 TEMP              0 ****  ****    0 ROOT


##########                                Name:    ZINC000279452407
##########                DOCK_Rotatable_Bonds:                   6
##########                         Heavy_Atoms:                  24
##########                    Molecular_Weight:              375.47
##########                DOCK_Rotatable_Bonds:                   6
##########                       Formal_Charge:          0.00999929
##########                     HBond_Acceptors:                  10
##########                        HBond_Donors:                   3
##########                         Heavy_Atoms:                  24
##########                          Grid_Score:          -30.755774
##########                     Grid_vdw_energy:          -29.183746
##########                      Grid_es_energy:           -1.572027
##########           Internal_energy_repulsive:           27.624704

@<TRIPOS>MOLECULE
ZINC000279452407
 45 47 1 0 0
SMALL
USER_CHARGES


@<TRIPOS>ATOM
      1 C1         -6.2676    0.7647   50.8719 C.3     1  ZINC000279452407   -0.1600
      2 C2         -5.6349    2.1477   50.7049 C.3     1  ZINC000279452407    0.0600
      3 H3         -6.1432    2.6948   49.9109 H       1  ZINC000279452407    0.0700
      4 O4         -4.2374    2.0124   50.3898 O.3     1  ZINC000279452407   -0.3700
      5 C5         -3.5546    3.1217   51.0137 C.3     1  ZINC000279452407    0.0500
      6 C6         -4.2644    3.2601   52.3859 C.3     1  ZINC000279452407   -0.1400
      7 C7         -5.7314    2.9296   52.0232 C.3     1  ZINC000279452407    0.0700
      8 C8         -6.3536    2.0593   53.1122 C.3     1  ZINC000279452407    0.1100
      9 N9         -7.7911    1.9132   52.8275 N.am    1  ZINC000279452407   -0.6300
     10 C10        -8.3800    0.7009   52.8277 C.2     1  ZINC000279452407    0.7200
     11 O11        -7.7229   -0.2941   53.0653 O.2     1  ZINC000279452407   -0.5800
     12 N12        -9.6973    0.5915   52.5647 N.am    1  ZINC000279452407   -0.7500
     13 C13       -10.3373   -0.7262   52.5650 C.3     1  ZINC000279452407    0.2000
     14 C14       -11.0690   -0.9290   53.8668 C.2     1  ZINC000279452407   -0.1700
     15 C15       -12.3236   -0.5477   54.1112 C.2     1  ZINC000279452407   -0.1400
     16 C16       -12.7852   -0.8413   55.3827 C.2     1  ZINC000279452407    0.0100
     17 C17       -11.9055   -1.4610   56.1709 C.2     1  ZINC000279452407   -0.7900
     18 S18       -12.2067   -1.9597   57.8339 S.o2    1  ZINC000279452407    2.7300
     19 N19       -13.8175   -2.3252   57.9519 N.am    1  ZINC000279452407   -1.2500
     20 O20       -11.5035   -3.1805   58.0202 O.2     1  ZINC000279452407   -0.9600
     21 O21       -11.9957   -0.8101   58.6419 O.2     1  ZINC000279452407   -0.9500
     22 S22       -10.4018   -1.7116   55.2936 S.3     1  ZINC000279452407    0.2500
     23 C23        -8.5646    3.1325   52.5431 C.3     1  ZINC000279452407    0.0700
     24 C24        -7.8359    3.9269   51.4532 C.3     1  ZINC000279452407    0.0400
     25 O25        -6.4756    4.1289   51.8475 O.3     1  ZINC000279452407   -0.3600
     26 H26        -7.3421    0.8722   51.0205 H       1  ZINC000279452407    0.0700
     27 H27        -6.0823    0.1699   49.9775 H       1  ZINC000279452407    0.0600
     28 H28        -5.8293    0.2667   51.7368 H       1  ZINC000279452407    0.0800
     29 H29        -2.4974    2.8938   51.1498 H       1  ZINC000279452407    0.1000
     30 H30        -3.6796    4.0297   50.4239 H       1  ZINC000279452407    0.0700
     31 H31        -3.8677    2.5419   53.1036 H       1  ZINC000279452407    0.1000
     32 H32        -4.1789    4.2775   52.7675 H       1  ZINC000279452407    0.1000
     33 H33        -5.8788    1.0782   53.1130 H       1  ZINC000279452407    0.1200
     34 H34        -6.2191    2.5357   54.0832 H       1  ZINC000279452407    0.0800
     35 H35       -10.2216    1.3854   52.3751 H       1  ZINC000279452407    0.4000
     36 H36       -11.0443   -0.7871   51.7376 H       1  ZINC000279452407    0.1000
     37 H37        -9.5773   -1.4993   52.4511 H       1  ZINC000279452407    0.0900
     38 H38       -12.9330   -0.0474   53.3731 H       1  ZINC000279452407    0.1600
     39 H39       -13.7821   -0.5873   55.7119 H       1  ZINC000279452407    0.1600
     40 H40       -14.1866   -2.6227   58.7982 H       1  ZINC000279452407    0.4200
     41 H41       -14.3919   -2.2420   57.1747 H       1  ZINC000279452407    0.4200
     42 H42        -9.5610    2.8612   52.1944 H       1  ZINC000279452407    0.0900
     43 H43        -8.6416    3.7366   53.4471 H       1  ZINC000279452407    0.0900
     44 H44        -7.8647    3.3704   50.5164 H       1  ZINC000279452407    0.0600
     45 H45        -8.3234    4.8926   51.3191 H       1  ZINC000279452407    0.1100
@<TRIPOS>BOND
     1     1     2    1
     2     1    26    1
     3     1    27    1
     4     1    28    1
     5     2     3    1
     6     2     7    1
     7     2     4    1
     8     4     5    1
     9     5     6    1
    10     5    29    1
    11     5    30    1
    12     6     7    1
    13     6    31    1
    14     6    32    1
    15     7    25    1
    16     7     8    1
    17     8     9    1
    18     8    33    1
    19     8    34    1
    20     9    10   am
    21     9    23    1
    22    10    11    2
    23    10    12   am
    24    12    13    1
    25    12    35    1
    26    13    14    1
    27    13    36    1
    28    13    37    1
    29    14    22    1
    30    14    15    2
    31    15    16    1
    32    15    38    1
    33    16    17    2
    34    16    39    1
    35    17    18    1
    36    17    22    1
    37    18    19   am
    38    18    20    2
    39    18    21    2
    40    19    40    1
    41    19    41    1
    42    23    24    1
    43    23    42    1
    44    23    43    1
    45    24    25    1
    46    24    44    1
    47    24    45    1
@<TRIPOS>SUBSTRUCTURE
     1 ZINC000279452407        1 TEMP              0 ****  ****    0 ROOT


##########                                Name:    ZINC001061022329
##########                DOCK_Rotatable_Bonds:                   7
##########                         Heavy_Atoms:                  27
##########                    Molecular_Weight:             374.523
##########                DOCK_Rotatable_Bonds:                   7
##########                       Formal_Charge:           0.0800005
##########                     HBond_Acceptors:                   5
##########                        HBond_Donors:                   0
##########                         Heavy_Atoms:                  27
##########                          Grid_Score:          -30.714878
##########                     Grid_vdw_energy:          -29.832617
##########                      Grid_es_energy:           -0.882262
##########           Internal_energy_repulsive:           20.808151

@<TRIPOS>MOLECULE
ZINC001061022329
 61 64 1 0 0
SMALL
USER_CHARGES


@<TRIPOS>ATOM
      1 C1          1.7979    1.8903   50.0876 C.3     1  ZINC001061022329   -0.1500
      2 C2          1.7745    2.3044   51.5604 C.3     1  ZINC001061022329   -0.1200
      3 C3          0.5450    3.1756   51.8257 C.3     1  ZINC001061022329    0.0800
      4 H4          0.4023    3.2849   52.9008 H       1  ZINC001061022329    0.0600
      5 C5          0.7515    4.5545   51.1958 C.3     1  ZINC001061022329   -0.1800
      6 O6         -0.6091    2.5580   51.2525 O.3     1  ZINC001061022329   -0.3500
      7 C7         -1.8477    3.1140   51.6983 C.3     1  ZINC001061022329    0.0500
      8 C8         -2.9858    2.2421   51.2339 C.2     1  ZINC001061022329    0.5200
      9 O9         -2.7559    1.2128   50.6350 O.2     1  ZINC001061022329   -0.5100
     10 N10        -4.2591    2.6062   51.4840 N.am    1  ZINC001061022329   -0.6100
     11 C11        -4.5496    3.8545   52.2014 C.3     1  ZINC001061022329    0.1100
     12 C12        -5.4166    3.5304   53.4239 C.3     1  ZINC001061022329   -0.1200
     13 C13        -6.6272    2.7149   52.9761 C.3     1  ZINC001061022329   -0.0900
     14 C14        -7.6791    2.5208   54.0768 C.3     1  ZINC001061022329    0.1200
     15 N15        -8.6792    2.7913   53.0245 N.am    1  ZINC001061022329   -0.6400
     16 C16        -9.9790    2.4779   52.8547 C.2     1  ZINC001061022329    0.5400
     17 O17       -10.5662    2.8447   51.8590 O.2     1  ZINC001061022329   -0.5300
     18 C18       -10.7026    1.6716   53.9023 C.3     1  ZINC001061022329   -0.0900
     19 H19       -10.4786    2.0750   54.8899 H       1  ZINC001061022329    0.1000
     20 C20       -10.2434    0.2136   53.8308 C.3     1  ZINC001061022329   -0.1000
     21 C21       -11.4467   -0.6896   53.5316 C.3     1  ZINC001061022329   -0.0600
     22 H22       -11.1333   -1.7281   53.4252 H       1  ZINC001061022329    0.0800
     23 C23       -12.0986   -0.1888   52.2512 C.2     1  ZINC001061022329   -0.1800
     24 C24       -12.4980    1.0793   52.3134 C.2     1  ZINC001061022329   -0.1300
     25 C25       -12.2141    1.7462   53.6508 C.3     1  ZINC001061022329   -0.0400
     26 H26       -12.5651    2.7781   53.6504 H       1  ZINC001061022329    0.0900
     27 C27       -12.9251    0.9300   54.7390 C.3     1  ZINC001061022329   -0.1100
     28 C28       -12.4580   -0.5409   54.6766 C.3     1  ZINC001061022329   -0.1100
     29 C29        -7.6848    3.5433   52.2335 C.3     1  ZINC001061022329    0.1100
     30 C30        -6.2487    1.4224   52.2572 C.3     1  ZINC001061022329   -0.1100
     31 C31        -5.3761    1.7633   51.0376 C.3     1  ZINC001061022329    0.1100
     32 H32         0.8953    1.3254   49.8546 H       1  ZINC001061022329    0.0500
     33 H33         1.8414    2.7807   49.4605 H       1  ZINC001061022329    0.0600
     34 H34         2.6738    1.2697   49.8986 H       1  ZINC001061022329    0.0600
     35 H35         1.7311    1.4139   52.1875 H       1  ZINC001061022329    0.0800
     36 H36         2.6771    2.8692   51.7934 H       1  ZINC001061022329    0.0700
     37 H37        -0.1244    5.1751   51.3848 H       1  ZINC001061022329    0.0600
     38 H38         1.6318    5.0256   51.6331 H       1  ZINC001061022329    0.0700
     39 H39         0.8941    4.4452   50.1207 H       1  ZINC001061022329    0.0700
     40 H40        -1.8514    3.1668   52.7870 H       1  ZINC001061022329    0.0800
     41 H41        -1.9657    4.1159   51.2854 H       1  ZINC001061022329    0.0800
     42 H42        -3.6165    4.3146   52.5268 H       1  ZINC001061022329    0.0900
     43 H43        -5.0865    4.5378   51.5434 H       1  ZINC001061022329    0.0800
     44 H44        -4.8336    2.9532   54.1415 H       1  ZINC001061022329    0.0800
     45 H45        -5.7532    4.4575   53.8880 H       1  ZINC001061022329    0.0800
     46 H46        -7.7200    1.5058   54.4719 H       1  ZINC001061022329    0.0800
     47 H47        -7.6449    3.2815   54.8568 H       1  ZINC001061022329    0.0900
     48 H48        -9.5020    0.1048   53.0392 H       1  ZINC001061022329    0.0700
     49 H49        -9.8011   -0.0749   54.7844 H       1  ZINC001061022329    0.0700
     50 H50       -12.2254   -0.8051   51.3735 H       1  ZINC001061022329    0.1200
     51 H51       -12.9786    1.5877   51.4906 H       1  ZINC001061022329    0.1200
     52 H52       -12.6802    1.3401   55.7188 H       1  ZINC001061022329    0.0700
     53 H53       -14.0029    0.9793   54.5840 H       1  ZINC001061022329    0.0700
     54 H54       -13.3157   -1.1865   54.4877 H       1  ZINC001061022329    0.0700
     55 H55       -11.9984   -0.8164   55.6258 H       1  ZINC001061022329    0.0700
     56 H56        -7.6522    4.6079   52.4657 H       1  ZINC001061022329    0.0900
     57 H57        -7.7301    3.3411   51.1634 H       1  ZINC001061022329    0.0800
     58 H58        -5.6927    0.7767   52.9369 H       1  ZINC001061022329    0.0800
     59 H59        -7.1527    0.9117   51.9256 H       1  ZINC001061022329    0.0800
     60 H60        -5.9730    2.2991   50.2996 H       1  ZINC001061022329    0.0700
     61 H61        -4.9868    0.8447   50.5986 H       1  ZINC001061022329    0.1000
@<TRIPOS>BOND
     1     1     2    1
     2     1    32    1
     3     1    33    1
     4     1    34    1
     5     2     3    1
     6     2    35    1
     7     2    36    1
     8     3     4    1
     9     3     5    1
    10     3     6    1
    11     5    37    1
    12     5    38    1
    13     5    39    1
    14     6     7    1
    15     7     8    1
    16     7    40    1
    17     7    41    1
    18     8     9    2
    19     8    10   am
    20    10    31    1
    21    10    11    1
    22    11    12    1
    23    11    42    1
    24    11    43    1
    25    12    13    1
    26    12    44    1
    27    12    45    1
    28    13    29    1
    29    13    14    1
    30    13    30    1
    31    14    15    1
    32    14    46    1
    33    14    47    1
    34    15    16   am
    35    15    29    1
    36    16    17    2
    37    16    18    1
    38    18    19    1
    39    18    25    1
    40    18    20    1
    41    20    21    1
    42    20    48    1
    43    20    49    1
    44    21    22    1
    45    21    28    1
    46    21    23    1
    47    23    24    2
    48    23    50    1
    49    24    25    1
    50    24    51    1
    51    25    26    1
    52    25    27    1
    53    27    28    1
    54    27    52    1
    55    27    53    1
    56    28    54    1
    57    28    55    1
    58    29    56    1
    59    29    57    1
    60    30    31    1
    61    30    58    1
    62    30    59    1
    63    31    60    1
    64    31    61    1
@<TRIPOS>SUBSTRUCTURE
     1 ZINC001061022329        1 TEMP              0 ****  ****    0 ROOT


##########                                Name:    ZINC000119180466
##########                DOCK_Rotatable_Bonds:                  10
##########                         Heavy_Atoms:                  23
##########                    Molecular_Weight:             350.405
##########                DOCK_Rotatable_Bonds:                  10
##########                       Formal_Charge:           0.0299997
##########                     HBond_Acceptors:                   8
##########                        HBond_Donors:                   3
##########                         Heavy_Atoms:                  23
##########                          Grid_Score:          -30.707371
##########                     Grid_vdw_energy:          -28.997921
##########                      Grid_es_energy:           -1.709450
##########           Internal_energy_repulsive:           10.036572

@<TRIPOS>MOLECULE
ZINC000119180466
 44 44 1 0 0
SMALL
USER_CHARGES


@<TRIPOS>ATOM
      1 C1        -14.9944   -1.8792   48.0644 C.3     1  ZINC000119180466   -0.1300
      2 S2        -13.5351   -1.0308   48.7286 S.3     1  ZINC000119180466   -0.2200
      3 C3        -14.1214    0.6705   48.9577 C.3     1  ZINC000119180466   -0.0700
      4 H4        -15.1193    0.7715   48.5310 H       1  ZINC000119180466    0.1100
      5 C5        -13.1663    1.6380   48.2559 C.3     1  ZINC000119180466    0.0800
      6 O6        -13.7490    2.9424   48.2227 O.3     1  ZINC000119180466   -0.5600
      7 C7        -14.1702    0.9962   50.4519 C.3     1  ZINC000119180466    0.1900
      8 H8        -13.7971    2.0071   50.6158 H       1  ZINC000119180466    0.1000
      9 C9        -15.6143    0.8990   50.9480 C.3     1  ZINC000119180466   -0.1700
     10 N10       -13.3360    0.0425   51.1870 N.am    1  ZINC000119180466   -0.7200
     11 C11       -12.5230    0.4766   52.1705 C.2     1  ZINC000119180466    0.7100
     12 O12       -12.4833    1.6596   52.4486 O.2     1  ZINC000119180466   -0.6000
     13 N13       -11.7543   -0.4006   52.8459 N.am    1  ZINC000119180466   -0.7400
     14 C14       -10.8720    0.0710   53.9161 C.3     1  ZINC000119180466    0.2000
     15 H15       -11.3180    0.9412   54.3976 H       1  ZINC000119180466    0.1000
     16 C16       -10.6827   -1.0421   54.9486 C.3     1  ZINC000119180466   -0.1600
     17 C17        -9.5344    0.4493   53.3342 C.ar    1  ZINC000119180466   -0.0600
     18 C18        -8.7239   -0.5216   52.7760 C.ar    1  ZINC000119180466   -0.1100
     19 C19        -7.4969   -0.1745   52.2423 C.ar    1  ZINC000119180466   -0.0600
     20 C20        -7.0806    1.1434   52.2663 C.ar    1  ZINC000119180466   -0.1800
     21 C21        -5.7427    1.5217   51.6850 C.3     1  ZINC000119180466    0.5100
     22 F22        -4.9332    0.3839   51.5989 F       1  ZINC000119180466   -0.1800
     23 F23        -5.9251    2.0619   50.4075 F       1  ZINC000119180466   -0.1800
     24 F24        -5.1276    2.4703   52.5090 F       1  ZINC000119180466   -0.1800
     25 C25        -7.8915    2.1145   52.8232 C.ar    1  ZINC000119180466   -0.0600
     26 C26        -9.1203    1.7681   53.3535 C.ar    1  ZINC000119180466   -0.1100
     27 H27       -15.2929   -1.4092   47.1273 H       1  ZINC000119180466    0.0800
     28 H28       -14.7549   -2.9274   47.8850 H       1  ZINC000119180466    0.1000
     29 H29       -15.8123   -1.8110   48.7817 H       1  ZINC000119180466    0.0800
     30 H30       -12.2225    1.6754   48.7998 H       1  ZINC000119180466    0.0500
     31 H31       -12.9852    1.2949   47.2373 H       1  ZINC000119180466    0.0600
     32 H32       -13.1692    3.6228   47.8539 H       1  ZINC000119180466    0.3800
     33 H33       -15.9875   -0.1120   50.7841 H       1  ZINC000119180466    0.0700
     34 H34       -15.6491    1.1310   52.0125 H       1  ZINC000119180466    0.0700
     35 H35       -16.2350    1.6086   50.4011 H       1  ZINC000119180466    0.0700
     36 H36       -13.3686   -0.9014   50.9661 H       1  ZINC000119180466    0.4100
     37 H37       -11.7852   -1.3442   52.6232 H       1  ZINC000119180466    0.4000
     38 H38       -10.0263   -0.6912   55.7448 H       1  ZINC000119180466    0.0700
     39 H39       -11.6503   -1.3156   55.3694 H       1  ZINC000119180466    0.0700
     40 H40       -10.2368   -1.9123   54.4671 H       1  ZINC000119180466    0.0600
     41 H41        -9.0493   -1.5512   52.7573 H       1  ZINC000119180466    0.1300
     42 H42        -6.8634   -0.9331   51.8069 H       1  ZINC000119180466    0.1400
     43 H43        -7.5664    3.1442   52.8417 H       1  ZINC000119180466    0.1400
     44 H44        -9.7539    2.5267   53.7887 H       1  ZINC000119180466    0.1400
@<TRIPOS>BOND
     1     1     2    1
     2     1    27    1
     3     1    28    1
     4     1    29    1
     5     2     3    1
     6     3     4    1
     7     3     5    1
     8     3     7    1
     9     5     6    1
    10     5    30    1
    11     5    31    1
    12     6    32    1
    13     7     8    1
    14     7     9    1
    15     7    10    1
    16     9    33    1
    17     9    34    1
    18     9    35    1
    19    10    11   am
    20    10    36    1
    21    11    12    2
    22    11    13   am
    23    13    14    1
    24    13    37    1
    25    14    15    1
    26    14    16    1
    27    14    17    1
    28    16    38    1
    29    16    39    1
    30    16    40    1
    31    17    26   ar
    32    17    18   ar
    33    18    19   ar
    34    18    41    1
    35    19    20   ar
    36    19    42    1
    37    20    21    1
    38    20    25   ar
    39    21    22    1
    40    21    23    1
    41    21    24    1
    42    25    26   ar
    43    25    43    1
    44    26    44    1
@<TRIPOS>SUBSTRUCTURE
     1 ZINC000119180466        1 TEMP              0 ****  ****    0 ROOT


##########                                Name:    ZINC000893400114
##########                DOCK_Rotatable_Bonds:                   6
##########                         Heavy_Atoms:                  27
##########                    Molecular_Weight:             381.472
##########                DOCK_Rotatable_Bonds:                   6
##########                       Formal_Charge:           0.0300001
##########                     HBond_Acceptors:                   8
##########                        HBond_Donors:                   1
##########                         Heavy_Atoms:                  27
##########                          Grid_Score:          -30.689362
##########                     Grid_vdw_energy:          -31.357435
##########                      Grid_es_energy:            0.668073
##########           Internal_energy_repulsive:           81.790451

@<TRIPOS>MOLECULE
ZINC000893400114
 58 61 1 0 0
SMALL
USER_CHARGES


@<TRIPOS>ATOM
      1 O1         -2.2387    4.0946   53.9369 O.2     1  ZINC000893400114   -0.5600
      2 C2         -1.0794    4.0285   53.5763 C.2     1  ZINC000893400114    0.7100
      3 N3         -0.0856    4.2602   54.4566 N.am    1  ZINC000893400114   -0.7300
      4 C4         -0.4022    4.5973   55.8468 C.3     1  ZINC000893400114    0.1400
      5 H5         -1.3455    5.1408   55.9012 H       1  ZINC000893400114    0.1200
      6 C6          0.7392    5.4301   56.4750 C.3     1  ZINC000893400114   -0.1400
      7 C7          1.5923    4.3347   57.1523 C.3     1  ZINC000893400114    0.1000
      8 N8          0.6672    3.2271   57.4193 N.am    1  ZINC000893400114   -0.6200
      9 C9          0.9365    2.1324   58.3550 C.3     1  ZINC000893400114    0.1600
     10 C10         2.3486    2.2844   58.9287 C.3     1  ZINC000893400114   -0.1700
     11 C11         2.5920    1.1824   59.9632 C.3     1  ZINC000893400114    0.0700
     12 O12         1.5971    1.2629   60.9859 O.3     1  ZINC000893400114   -0.3800
     13 C13         0.2602    1.0807   60.5151 C.3     1  ZINC000893400114    0.0700
     14 C14        -0.0768    2.1786   59.5028 C.3     1  ZINC000893400114   -0.1700
     15 C15        -0.4625    3.3459   56.6945 C.2     1  ZINC000893400114    0.5100
     16 O16        -1.3891    2.5637   56.7192 O.2     1  ZINC000893400114   -0.4900
     17 N17        -0.7882    3.7184   52.2974 N.am    1  ZINC000893400114   -0.6300
     18 C18         0.6072    3.6270   51.8391 C.3     1  ZINC000893400114    0.0800
     19 C19         0.7890    2.2926   51.1067 C.3     1  ZINC000893400114    0.0500
     20 O20        -0.2191    2.1664   50.1011 O.3     1  ZINC000893400114   -0.3800
     21 C21        -1.5542    2.1346   50.6114 C.3     1  ZINC000893400114    0.0600
     22 C22        -1.8559    3.4554   51.3197 C.3     1  ZINC000893400114    0.1400
     23 H23        -1.8857    4.2647   50.5902 H       1  ZINC000893400114    0.0800
     24 C24        -3.2036    3.3589   52.0375 C.3     1  ZINC000893400114   -0.1200
     25 C25        -4.2750    2.8912   51.0505 C.3     1  ZINC000893400114    0.0700
     26 H26        -3.9141    3.0112   50.0290 H       1  ZINC000893400114    0.0800
     27 C27        -5.5659    3.7141   51.2498 C.3     1  ZINC000893400114   -0.1500
     28 C28        -6.6728    2.6396   51.0705 C.3     1  ZINC000893400114   -0.1600
     29 C29        -5.9755    1.3952   51.6757 C.3     1  ZINC000893400114    0.0500
     30 O30        -4.5938    1.5163   51.2949 O.3     1  ZINC000893400114   -0.3800
     31 H31         0.8393    4.2036   54.1699 H       1  ZINC000893400114    0.4000
     32 H32         1.3110    5.9505   55.7067 H       1  ZINC000893400114    0.1000
     33 H33         0.3496    6.1324   57.2120 H       1  ZINC000893400114    0.1000
     34 H34         2.3880    4.0084   56.4826 H       1  ZINC000893400114    0.0700
     35 H35         2.0134    4.7079   58.0858 H       1  ZINC000893400114    0.0800
     36 H36         0.8538    1.1787   57.8338 H       1  ZINC000893400114    0.0900
     37 H37         3.0796    2.1973   58.1249 H       1  ZINC000893400114    0.0800
     38 H38         2.4449    3.2596   59.4058 H       1  ZINC000893400114    0.0900
     39 H39         2.5355    0.2085   59.4770 H       1  ZINC000893400114    0.0500
     40 H40         3.5797    1.3111   60.4059 H       1  ZINC000893400114    0.1000
     41 H41         0.1733    0.1055   60.0361 H       1  ZINC000893400114    0.0500
     42 H42        -0.4318    1.1362   61.3554 H       1  ZINC000893400114    0.1000
     43 H43        -0.0294    3.1517   59.9916 H       1  ZINC000893400114    0.0900
     44 H44        -1.0802    2.0159   59.1096 H       1  ZINC000893400114    0.0700
     45 H45         0.8252    4.4512   51.1600 H       1  ZINC000893400114    0.0800
     46 H46         1.2787    3.6696   52.6965 H       1  ZINC000893400114    0.0800
     47 H47         1.7739    2.2645   50.6406 H       1  ZINC000893400114    0.1100
     48 H48         0.6985    1.4717   51.8180 H       1  ZINC000893400114    0.0500
     49 H49        -2.2551    1.9927   49.7888 H       1  ZINC000893400114    0.1300
     50 H50        -1.6533    1.3131   51.3208 H       1  ZINC000893400114    0.0500
     51 H51        -3.1283    2.6446   52.8574 H       1  ZINC000893400114    0.0800
     52 H52        -3.4759    4.3378   52.4324 H       1  ZINC000893400114    0.1100
     53 H53        -5.6011    4.1440   52.2509 H       1  ZINC000893400114    0.0800
     54 H54        -5.6523    4.4906   50.4897 H       1  ZINC000893400114    0.0800
     55 H55        -7.5687    2.9006   51.6337 H       1  ZINC000893400114    0.0800
     56 H56        -6.9043    2.4863   50.0164 H       1  ZINC000893400114    0.0800
     57 H57        -6.0711    1.3987   52.7615 H       1  ZINC000893400114    0.0600
     58 H58        -6.4029    0.4825   51.2604 H       1  ZINC000893400114    0.0800
@<TRIPOS>BOND
     1     1     2    2
     2     2     3   am
     3     2    17   am
     4     3     4    1
     5     3    31    1
     6     4     5    1
     7     4    15    1
     8     4     6    1
     9     6     7    1
    10     6    32    1
    11     6    33    1
    12     7     8    1
    13     7    34    1
    14     7    35    1
    15     8     9    1
    16     8    15   am
    17     9    14    1
    18     9    10    1
    19     9    36    1
    20    10    11    1
    21    10    37    1
    22    10    38    1
    23    11    12    1
    24    11    39    1
    25    11    40    1
    26    12    13    1
    27    13    14    1
    28    13    41    1
    29    13    42    1
    30    14    43    1
    31    14    44    1
    32    15    16    2
    33    17    22    1
    34    17    18    1
    35    18    19    1
    36    18    45    1
    37    18    46    1
    38    19    20    1
    39    19    47    1
    40    19    48    1
    41    20    21    1
    42    21    22    1
    43    21    49    1
    44    21    50    1
    45    22    23    1
    46    22    24    1
    47    24    25    1
    48    24    51    1
    49    24    52    1
    50    25    26    1
    51    25    30    1
    52    25    27    1
    53    27    28    1
    54    27    53    1
    55    27    54    1
    56    28    29    1
    57    28    55    1
    58    28    56    1
    59    29    30    1
    60    29    57    1
    61    29    58    1
@<TRIPOS>SUBSTRUCTURE
     1 ZINC000893400114        1 TEMP              0 ****  ****    0 ROOT


##########                                Name:    ZINC000342525234
##########                DOCK_Rotatable_Bonds:                   6
##########                         Heavy_Atoms:                  25
##########                    Molecular_Weight:             333.349
##########                DOCK_Rotatable_Bonds:                   6
##########                       Formal_Charge:           0.0500003
##########                     HBond_Acceptors:                   7
##########                        HBond_Donors:                   2
##########                         Heavy_Atoms:                  25
##########                          Grid_Score:          -30.683367
##########                     Grid_vdw_energy:          -29.586615
##########                      Grid_es_energy:           -1.096751
##########           Internal_energy_repulsive:            3.188244

@<TRIPOS>MOLECULE
ZINC000342525234
 40 43 1 0 0
SMALL
USER_CHARGES


@<TRIPOS>ATOM
      1 O1         -6.8083   -1.1454   51.8123 O.2     1  <0>        -0.5100
      2 C2         -7.4174   -0.1148   52.0196 C.2     1  <0>         0.6000
      3 N3         -6.8372    1.0742   51.7626 N.am    1  <0>        -0.7100
      4 C4         -5.4699    1.1241   51.2389 C.3     1  <0>         0.1200
      5 C5         -4.9641    2.5678   51.2704 C.3     1  <0>        -0.0900
      6 C6         -3.4636    2.5714   51.4102 C.ar    1  <0>        -0.0400
      7 C7         -2.7005    2.2473   50.3366 C.ar    1  <0>        -0.1000
      8 C8         -1.2940    2.2472   50.4558 C.ar    1  <0>         0.1100
      9 N9         -0.2926    1.9887   49.6346 N.2     1  <0>        -0.3100
     10 N10         0.9146    2.1552   50.3228 N.pl3   1  <0>        -0.4200
     11 C11         0.6724    2.5217   51.5887 C.2     1  <0>         0.0900
     12 C12        -0.6979    2.6021   51.7532 C.ar    1  <0>        -0.2100
     13 C13        -1.5534    2.9286   52.8271 C.ar    1  <0>        -0.0400
     14 C14        -2.8969    2.9138   52.6400 C.ar    1  <0>        -0.1500
     15 C15        -8.8019   -0.1653   52.5499 C.2     1  <0>        -0.0200
     16 N16        -9.5479   -1.2325   52.6990 N.2     1  <0>        -0.3200
     17 O17       -10.6334   -0.9601   53.1557 O.3     1  <0>         0.1400
     18 C18       -10.7631    0.3595   53.3795 C.2     1  <0>         0.0100
     19 C19       -11.9477    1.0529   53.9299 C.ar    1  <0>         0.0200
     20 C20       -13.0912    0.3371   54.3029 C.ar    1  <0>        -0.1400
     21 C21       -14.1736    1.0243   54.8125 C.ar    1  <0>         0.1100
     22 N22       -14.1402    2.3360   54.9491 N.ar    1  <0>        -0.4800
     23 C23       -13.0829    3.0486   54.6099 C.ar    1  <0>         0.1100
     24 C24       -11.9545    2.4423   54.0976 C.ar    1  <0>        -0.1500
     25 C25        -9.5806    0.9320   53.0028 C.2     1  <0>        -0.1500
     26 H26        -7.3249    1.8969   51.9245 H       1  <0>         0.4100
     27 H27        -4.8224    0.4988   51.8535 H       1  <0>         0.0800
     28 H28        -5.4605    0.7582   50.2123 H       1  <0>         0.0800
     29 H29        -5.2440    3.0710   50.3450 H       1  <0>         0.0900
     30 H30        -5.4092    3.0903   52.1172 H       1  <0>         0.0800
     31 H31        -3.1661    1.9906   49.3967 H       1  <0>         0.1300
     32 H32         1.7962    2.0243   49.9402 H       1  <0>         0.4500
     33 H33         1.4161    2.7190   52.3465 H       1  <0>         0.1900
     34 H34        -1.1413    3.1927   53.7898 H       1  <0>         0.1300
     35 H35        -3.5456    3.1650   53.4662 H       1  <0>         0.1200
     36 H36       -13.1258   -0.7367   54.1933 H       1  <0>         0.1400
     37 H37       -15.0606    0.4810   55.1032 H       1  <0>         0.1700
     38 H38       -13.0996    4.1207   54.7389 H       1  <0>         0.1700
     39 H39       -11.0926    3.0319   53.8222 H       1  <0>         0.1500
     40 H40        -9.3053    1.9758   53.0359 H       1  <0>         0.1900
@<TRIPOS>BOND
     1     1     2    2
     2     2     3   am
     3     2    15    1
     4     3     4    1
     5     3    26    1
     6     4     5    1
     7     4    27    1
     8     4    28    1
     9     5     6    1
    10     5    29    1
    11     5    30    1
    12     6    14   ar
    13     6     7   ar
    14     7     8   ar
    15     7    31    1
    16     8    12   ar
    17     8     9    2
    18     9    10    1
    19    10    11    1
    20    10    32    1
    21    11    12    2
    22    11    33    1
    23    12    13   ar
    24    13    14   ar
    25    13    34    1
    26    14    35    1
    27    15    25    1
    28    15    16    2
    29    16    17    1
    30    17    18    1
    31    18    19    1
    32    18    25    2
    33    19    24   ar
    34    19    20   ar
    35    20    21   ar
    36    20    36    1
    37    21    22   ar
    38    21    37    1
    39    22    23   ar
    40    23    24   ar
    41    23    38    1
    42    24    39    1
    43    25    40    1
@<TRIPOS>SUBSTRUCTURE
     1 <0>         1 TEMP              0 ****  ****    0 ROOT


##########                                Name:    ZINC001053792610
##########                DOCK_Rotatable_Bonds:                   5
##########                         Heavy_Atoms:                  25
##########                    Molecular_Weight:             347.374
##########                DOCK_Rotatable_Bonds:                   5
##########                       Formal_Charge:          -0.0400001
##########                     HBond_Acceptors:                   9
##########                        HBond_Donors:                   2
##########                         Heavy_Atoms:                  25
##########                          Grid_Score:          -30.666943
##########                     Grid_vdw_energy:          -29.100561
##########                      Grid_es_energy:           -1.566381
##########           Internal_energy_repulsive:            4.507614

@<TRIPOS>MOLECULE
ZINC001053792610
 46 49 1 0 0
SMALL
USER_CHARGES


@<TRIPOS>ATOM
      1 C1         -7.7955    1.5714   60.4940 C.3     1  ZINC001053792610   -0.1000
      2 C2         -8.1199    1.8072   59.0413 C.ar    1  ZINC001053792610    0.0800
      3 C3         -7.4127    2.7519   58.3191 C.ar    1  ZINC001053792610    0.0600
      4 N4         -7.6972    2.9587   57.0453 N.ar    1  ZINC001053792610   -0.4200
      5 C5         -8.6569    2.2633   56.4613 C.ar    1  ZINC001053792610    0.0800
      6 C6         -8.9810    2.4988   55.0086 C.3     1  ZINC001053792610    0.0700
      7 N7         -8.2877    1.5002   54.1840 N.3     1  ZINC001053792610   -0.4500
      8 C8         -6.9162    1.9406   53.8613 C.3     1  ZINC001053792610   -0.0100
      9 C9         -7.1479    1.4216   52.4437 C.3     1  ZINC001053792610    0.0800
     10 C10        -8.6224    1.6686   52.7561 C.3     1  ZINC001053792610   -0.0100
     11 C11        -6.5607    2.2942   51.3232 C.3     1  ZINC001053792610   -0.1500
     12 C12        -5.4141    1.3948   50.7813 C.3     1  ZINC001053792610    0.1100
     13 H13        -5.2234    1.5947   49.7269 H       1  ZINC001053792610    0.1200
     14 N14        -4.1941    1.5598   51.5753 N.am    1  ZINC001053792610   -0.7100
     15 C15        -3.4567    2.6812   51.4528 C.2     1  ZINC001053792610    0.5000
     16 O16        -3.8040    3.5545   50.6862 O.2     1  ZINC001053792610   -0.5100
     17 C17        -2.2007    2.8501   52.2683 C.3     1  ZINC001053792610    0.0800
     18 H18        -2.2661    2.2772   53.1933 H       1  ZINC001053792610    0.1300
     19 C19        -0.9647    2.4227   51.4533 C.3     1  ZINC001053792610    0.0500
     20 O20        -0.1630    3.6362   51.3661 O.3     1  ZINC001053792610   -0.3200
     21 C21        -0.7870    4.6303   52.0080 C.2     1  ZINC001053792610    0.6500
     22 O22        -0.3344    5.7550   52.0881 O.2     1  ZINC001053792610   -0.5100
     23 N23        -1.9594    4.2720   52.5570 N.am    1  ZINC001053792610   -0.7100
     24 C24        -6.0243   -0.0163   50.9805 C.3     1  ZINC001053792610    0.0400
     25 O25        -6.7766    0.0678   52.2042 O.3     1  ZINC001053792610   -0.3300
     26 C26        -9.3644    1.3184   57.1837 C.ar    1  ZINC001053792610    0.0600
     27 N27        -9.0763    1.1078   58.4559 N.ar    1  ZINC001053792610   -0.4400
     28 H28        -7.0297    0.7999   60.5747 H       1  ZINC001053792610    0.0800
     29 H29        -7.4279    2.4961   60.9389 H       1  ZINC001053792610    0.0800
     30 H30        -8.6941    1.2476   61.0191 H       1  ZINC001053792610    0.0800
     31 H31        -6.6284    3.3204   58.7966 H       1  ZINC001053792610    0.1700
     32 H32       -10.0570    2.4110   54.8575 H       1  ZINC001053792610    0.1000
     33 H33        -8.6542    3.4979   54.7207 H       1  ZINC001053792610    0.0600
     34 H34        -6.7833    3.0213   53.9124 H       1  ZINC001053792610    0.0800
     35 H35        -6.1451    1.3938   54.4039 H       1  ZINC001053792610    0.0900
     36 H36        -9.2844    0.8933   52.3703 H       1  ZINC001053792610    0.1000
     37 H37        -8.9577    2.6746   52.5039 H       1  ZINC001053792610    0.0800
     38 H38        -7.3039    2.4862   50.5493 H       1  ZINC001053792610    0.1000
     39 H39        -6.1668    3.2284   51.7233 H       1  ZINC001053792610    0.1000
     40 H40        -3.9170    0.8618   52.1894 H       1  ZINC001053792610    0.4000
     41 H41        -0.4156    1.6387   51.9747 H       1  ZINC001053792610    0.1200
     42 H42        -1.2598    2.0874   50.4590 H       1  ZINC001053792610    0.1100
     43 H43        -2.5494    4.8563   53.0585 H       1  ZINC001053792610    0.4400
     44 H44        -6.6827   -0.2646   50.1480 H       1  ZINC001053792610    0.0800
     45 H45        -5.2334   -0.7607   51.0731 H       1  ZINC001053792610    0.0900
     46 H46       -10.1489    0.7500   56.7065 H       1  ZINC001053792610    0.1600
@<TRIPOS>BOND
     1     1     2    1
     2     1    28    1
     3     1    29    1
     4     1    30    1
     5     2    27   ar
     6     2     3   ar
     7     3     4   ar
     8     3    31    1
     9     4     5   ar
    10     5     6    1
    11     5    26   ar
    12     6     7    1
    13     6    32    1
    14     6    33    1
    15     7    10    1
    16     7     8    1
    17     8     9    1
    18     8    34    1
    19     8    35    1
    20     9    25    1
    21     9    10    1
    22     9    11    1
    23    10    36    1
    24    10    37    1
    25    11    12    1
    26    11    38    1
    27    11    39    1
    28    12    13    1
    29    12    14    1
    30    12    24    1
    31    14    15   am
    32    14    40    1
    33    15    16    2
    34    15    17    1
    35    17    18    1
    36    17    23    1
    37    17    19    1
    38    19    20    1
    39    19    41    1
    40    19    42    1
    41    20    21    1
    42    21    22    2
    43    21    23   am
    44    23    43    1
    45    24    25    1
    46    24    44    1
    47    24    45    1
    48    26    27   ar
    49    26    46    1
@<TRIPOS>SUBSTRUCTURE
     1 ZINC001053792610        1 TEMP              0 ****  ****    0 ROOT


##########                                Name:    ZINC000508571532
##########                DOCK_Rotatable_Bonds:                   9
##########                         Heavy_Atoms:                  30
##########                    Molecular_Weight:             422.407
##########                DOCK_Rotatable_Bonds:                   9
##########                       Formal_Charge:           0.0100001
##########                     HBond_Acceptors:                  10
##########                        HBond_Donors:                   0
##########                         Heavy_Atoms:                  30
##########                          Grid_Score:          -30.661259
##########                     Grid_vdw_energy:          -30.114319
##########                      Grid_es_energy:           -0.546939
##########           Internal_energy_repulsive:           19.435190

@<TRIPOS>MOLECULE
ZINC000508571532
 51 53 1 0 0
SMALL
USER_CHARGES


@<TRIPOS>ATOM
      1 C1        -14.4332   -3.1343   57.5350 C.3     1  ZINC000508571532    0.0300
      2 O2        -13.4343   -2.3775   58.2215 O.3     1  ZINC000508571532   -0.3200
      3 C3        -12.5554   -1.6772   57.4558 C.ar    1  ZINC000508571532    0.0900
      4 C4        -12.6298   -1.7497   56.0727 C.ar    1  ZINC000508571532   -0.1700
      5 C5        -11.7370   -1.0384   55.2948 C.ar    1  ZINC000508571532   -0.1100
      6 C6        -10.7665   -0.2513   55.8969 C.ar    1  ZINC000508571532    0.0900
      7 O7         -9.8874    0.4485   55.1312 O.3     1  ZINC000508571532   -0.3100
      8 C8        -10.0203    0.3250   53.7137 C.3     1  ZINC000508571532    0.1500
      9 C9         -9.0562    1.2637   53.0350 C.2     1  ZINC000508571532    0.1700
     10 N10        -9.2360    2.5371   52.8261 N.2     1  ZINC000508571532   -0.2500
     11 N11        -8.2152    3.0331   52.2228 N.2     1  ZINC000508571532   -0.3000
     12 C12        -7.3221    2.0951   52.0129 C.2     1  ZINC000508571532    0.3500
     13 N13        -6.0943    2.2512   51.3894 N.3     1  ZINC000508571532   -0.4600
     14 C14        -6.1591    3.2886   50.3514 C.3     1  ZINC000508571532    0.0300
     15 C15        -5.0411    2.5512   52.3685 C.3     1  ZINC000508571532    0.1100
     16 C16        -3.7053    2.5940   51.6722 C.ar    1  ZINC000508571532   -0.0900
     17 C17        -3.3174    1.5495   50.8560 C.ar    1  ZINC000508571532   -0.0600
     18 C18        -2.0916    1.5879   50.2172 C.ar    1  ZINC000508571532   -0.1300
     19 C19        -1.2516    2.6716   50.3931 C.ar    1  ZINC000508571532   -0.0700
     20 C20        -1.6351    3.7193   51.2082 C.ar    1  ZINC000508571532   -0.1900
     21 C21        -2.8664    3.6856   51.8459 C.ar    1  ZINC000508571532    0.1100
     22 O22        -3.2459    4.7148   52.6481 O.3     1  ZINC000508571532   -0.3100
     23 C23        -2.6411    4.7868   53.9408 C.3     1  ZINC000508571532    0.6000
     24 F24        -3.6284    5.0143   54.9056 F       1  ZINC000508571532   -0.1600
     25 F25        -1.9876    3.5812   54.2177 F       1  ZINC000508571532   -0.1300
     26 F26        -1.7153    5.8353   53.9648 F       1  ZINC000508571532   -0.1600
     27 N27        -7.8280    0.9380   52.5297 N.pl3   1  ZINC000508571532   -0.4500
     28 C28        -7.1917   -0.3816   52.5336 C.3     1  ZINC000508571532    0.0800
     29 C29       -10.6931   -0.1778   57.2799 C.ar    1  ZINC000508571532   -0.1700
     30 C30       -11.5882   -0.8861   58.0578 C.ar    1  ZINC000508571532   -0.1100
     31 H31       -15.0666   -3.6434   58.2614 H       1  ZINC000508571532    0.1000
     32 H32       -15.0426   -2.4651   56.9275 H       1  ZINC000508571532    0.0600
     33 H33       -13.9524   -3.8718   56.8922 H       1  ZINC000508571532    0.0600
     34 H34       -13.3854   -2.3625   55.6039 H       1  ZINC000508571532    0.1400
     35 H35       -11.7944   -1.0953   54.2178 H       1  ZINC000508571532    0.1300
     36 H36        -9.7998   -0.7000   53.4160 H       1  ZINC000508571532    0.0800
     37 H37       -11.0396    0.5771   53.4211 H       1  ZINC000508571532    0.1000
     38 H38        -6.3004    4.2627   50.8196 H       1  ZINC000508571532    0.0600
     39 H39        -5.2302    3.2907   49.7813 H       1  ZINC000508571532    0.0800
     40 H40        -6.9951    3.0822   49.6831 H       1  ZINC000508571532    0.0700
     41 H41        -5.2404    3.5175   52.8319 H       1  ZINC000508571532    0.0700
     42 H42        -5.0265    1.7766   53.1353 H       1  ZINC000508571532    0.0900
     43 H43        -3.9720    0.7017   50.7170 H       1  ZINC000508571532    0.1400
     44 H44        -1.7899    0.7698   49.5800 H       1  ZINC000508571532    0.1300
     45 H45        -0.2946    2.6992   49.8933 H       1  ZINC000508571532    0.1400
     46 H46        -0.9783    4.5656   51.3455 H       1  ZINC000508571532    0.1400
     47 H47        -6.6730   -0.5320   53.4804 H       1  ZINC000508571532    0.0900
     48 H48        -7.9525   -1.1523   52.4097 H       1  ZINC000508571532    0.0900
     49 H49        -6.4761   -0.4423   51.7137 H       1  ZINC000508571532    0.1000
     50 H50        -9.9375    0.4353   57.7488 H       1  ZINC000508571532    0.1400
     51 H51       -11.5310   -0.8289   59.1348 H       1  ZINC000508571532    0.1400
@<TRIPOS>BOND
     1     1     2    1
     2     1    31    1
     3     1    32    1
     4     1    33    1
     5     2     3    1
     6     3    30   ar
     7     3     4   ar
     8     4     5   ar
     9     4    34    1
    10     5     6   ar
    11     5    35    1
    12     6     7    1
    13     6    29   ar
    14     7     8    1
    15     8     9    1
    16     8    36    1
    17     8    37    1
    18     9    27    1
    19     9    10    2
    20    10    11    1
    21    11    12    2
    22    12    13    1
    23    12    27    1
    24    13    14    1
    25    13    15    1
    26    14    38    1
    27    14    39    1
    28    14    40    1
    29    15    16    1
    30    15    41    1
    31    15    42    1
    32    16    21   ar
    33    16    17   ar
    34    17    18   ar
    35    17    43    1
    36    18    19   ar
    37    18    44    1
    38    19    20   ar
    39    19    45    1
    40    20    21   ar
    41    20    46    1
    42    21    22    1
    43    22    23    1
    44    23    24    1
    45    23    25    1
    46    23    26    1
    47    27    28    1
    48    28    47    1
    49    28    48    1
    50    28    49    1
    51    29    30   ar
    52    29    50    1
    53    30    51    1
@<TRIPOS>SUBSTRUCTURE
     1 ZINC000508571532        1 TEMP              0 ****  ****    0 ROOT


##########                                Name:    ZINC000809503567
##########                DOCK_Rotatable_Bonds:                   9
##########                         Heavy_Atoms:                  26
##########                    Molecular_Weight:             353.378
##########                DOCK_Rotatable_Bonds:                   9
##########                       Formal_Charge:          -0.0200002
##########                     HBond_Acceptors:                   7
##########                        HBond_Donors:                   1
##########                         Heavy_Atoms:                  26
##########                          Grid_Score:          -30.653870
##########                     Grid_vdw_energy:          -30.829704
##########                      Grid_es_energy:            0.175835
##########           Internal_energy_repulsive:            7.477470

@<TRIPOS>MOLECULE
ZINC000809503567
 45 46 1 0 0
SMALL
USER_CHARGES


@<TRIPOS>ATOM
      1 C1         -6.5256    3.1500   53.3527 C.3     1  ZINC000809503567    0.0200
      2 O2         -6.7827    1.8165   53.7977 O.3     1  ZINC000809503567   -0.3100
      3 C3         -8.0047    1.2979   53.5160 C.ar    1  ZINC000809503567    0.1900
      4 C4         -9.1493    1.9078   54.0048 C.ar    1  ZINC000809503567   -0.2100
      5 C5        -10.3927    1.3788   53.7174 C.ar    1  ZINC000809503567   -0.0200
      6 C6        -10.5062    0.2377   52.9412 C.ar    1  ZINC000809503567   -0.1500
      7 C7        -11.8686   -0.3293   52.6356 C.3     1  ZINC000809503567    0.1700
      8 N8        -12.3720    0.2540   51.3895 N.am    1  ZINC000809503567   -0.7000
      9 C9        -13.6504    0.0465   51.0166 C.2     1  ZINC000809503567    0.5100
     10 O10       -14.3840   -0.6246   51.7121 O.2     1  ZINC000809503567   -0.4900
     11 C11       -14.1644    0.6431   49.7464 C.2     1  ZINC000809503567    0.5100
     12 O12       -14.1561    1.8470   49.5946 O.2     1  ZINC000809503567   -0.5000
     13 N13       -14.6370   -0.1561   48.7695 N.am    1  ZINC000809503567   -0.4600
     14 C14       -15.1425    0.4288   47.5250 C.3     1  ZINC000809503567    0.0800
     15 O15       -14.6450   -1.5610   48.9460 O.3     1  ZINC000809503567   -0.1100
     16 C16       -15.9537   -2.1325   49.0007 C.3     1  ZINC000809503567    0.0800
     17 C17       -15.8775   -3.5965   48.6515 C.ar    1  ZINC000809503567   -0.0900
     18 C18       -15.3864   -3.9888   47.4203 C.ar    1  ZINC000809503567   -0.1000
     19 C19       -15.3165   -5.3317   47.1000 C.ar    1  ZINC000809503567   -0.1300
     20 C20       -15.7372   -6.2824   48.0111 C.ar    1  ZINC000809503567   -0.1100
     21 C21       -16.2275   -5.8902   49.2427 C.ar    1  ZINC000809503567   -0.1300
     22 C22       -16.2934   -4.5474   49.5646 C.ar    1  ZINC000809503567   -0.0800
     23 C23        -9.3783   -0.3818   52.4463 C.ar    1  ZINC000809503567   -0.0100
     24 C24        -8.1153    0.1459   52.7245 C.ar    1  ZINC000809503567   -0.0600
     25 C25        -6.9396   -0.4924   52.2138 C.1     1  ZINC000809503567    0.2600
     26 N26        -6.0069   -0.9989   51.8086 N.1     1  ZINC000809503567   -0.4100
     27 H27        -7.2447    3.8303   53.8091 H       1  ZINC000809503567    0.0600
     28 H28        -5.5158    3.4412   53.6421 H       1  ZINC000809503567    0.1100
     29 H29        -6.6202    3.1955   52.2678 H       1  ZINC000809503567    0.0600
     30 H30        -9.0691    2.7977   54.6114 H       1  ZINC000809503567    0.1400
     31 H31       -11.2816    1.8579   54.1006 H       1  ZINC000809503567    0.1400
     32 H32       -11.7957   -1.4114   52.5267 H       1  ZINC000809503567    0.0900
     33 H33       -12.5523   -0.0913   53.4504 H       1  ZINC000809503567    0.0900
     34 H34       -11.7852    0.7896   50.8329 H       1  ZINC000809503567    0.4100
     35 H35       -14.3269    0.5170   46.8074 H       1  ZINC000809503567    0.0800
     36 H36       -15.9215   -0.2123   47.1125 H       1  ZINC000809503567    0.0800
     37 H37       -15.5554    1.4166   47.7292 H       1  ZINC000809503567    0.0900
     38 H38       -16.3577   -2.0195   50.0068 H       1  ZINC000809503567    0.0700
     39 H39       -16.6030   -1.6226   48.2891 H       1  ZINC000809503567    0.0600
     40 H40       -15.0577   -3.2461   46.7086 H       1  ZINC000809503567    0.1200
     41 H41       -14.9335   -5.6382   46.1379 H       1  ZINC000809503567    0.1200
     42 H42       -15.6833   -7.3315   47.7607 H       1  ZINC000809503567    0.1200
     43 H43       -16.5565   -6.6329   49.9544 H       1  ZINC000809503567    0.1200
     44 H44       -16.6764   -4.2410   50.5268 H       1  ZINC000809503567    0.1300
     45 H45        -9.4713   -1.2716   51.8414 H       1  ZINC000809503567    0.1400
@<TRIPOS>BOND
     1     1     2    1
     2     1    27    1
     3     1    28    1
     4     1    29    1
     5     2     3    1
     6     3    24   ar
     7     3     4   ar
     8     4     5   ar
     9     4    30    1
    10     5     6   ar
    11     5    31    1
    12     6     7    1
    13     6    23   ar
    14     7     8    1
    15     7    32    1
    16     7    33    1
    17     8     9   am
    18     8    34    1
    19     9    10    2
    20     9    11    1
    21    11    12    2
    22    11    13   am
    23    13    14    1
    24    13    15    1
    25    14    35    1
    26    14    36    1
    27    14    37    1
    28    15    16    1
    29    16    17    1
    30    16    38    1
    31    16    39    1
    32    17    22   ar
    33    17    18   ar
    34    18    19   ar
    35    18    40    1
    36    19    20   ar
    37    19    41    1
    38    20    21   ar
    39    20    42    1
    40    21    22   ar
    41    21    43    1
    42    22    44    1
    43    23    24   ar
    44    23    45    1
    45    24    25    1
    46    25    26    3
@<TRIPOS>SUBSTRUCTURE
     1 ZINC000809503567        1 TEMP              0 ****  ****    0 ROOT


##########                                Name:    ZINC000132775118
##########                DOCK_Rotatable_Bonds:                   5
##########                         Heavy_Atoms:                  27
##########                    Molecular_Weight:             376.499
##########                DOCK_Rotatable_Bonds:                   5
##########                       Formal_Charge:        -4.76837e-07
##########                     HBond_Acceptors:                   7
##########                        HBond_Donors:                   1
##########                         Heavy_Atoms:                  27
##########                          Grid_Score:          -30.642918
##########                     Grid_vdw_energy:          -29.114765
##########                      Grid_es_energy:           -1.528152
##########           Internal_energy_repulsive:           22.772392

@<TRIPOS>MOLECULE
ZINC000132775118
 59 62 1 0 0
SMALL
USER_CHARGES


@<TRIPOS>ATOM
      1 O1        -10.6204    3.8019   55.0520 O.2     1  ZINC000132775118   -0.5200
      2 C2         -9.4311    3.6890   55.2611 C.2     1  ZINC000132775118    0.5200
      3 C3         -8.4650    3.6316   54.1059 C.3     1  ZINC000132775118    0.0300
      4 N4         -8.0688    2.2373   53.8678 N.3     1  ZINC000132775118   -0.5100
      5 C5         -9.2481    1.3661   53.7573 C.3     1  ZINC000132775118    0.0300
      6 C6         -8.8504   -0.0080   53.3008 C.2     1  ZINC000132775118    0.5300
      7 O7         -9.6474   -0.9127   53.4325 O.2     1  ZINC000132775118   -0.5500
      8 N8         -7.6582   -0.2831   52.7546 N.am    1  ZINC000132775118   -0.7200
      9 C9         -6.6192    0.7288   52.6221 C.3     1  ZINC000132775118    0.1500
     10 H10        -5.9238    0.6334   53.4560 H       1  ZINC000132775118    0.0800
     11 C11        -5.8477    0.5745   51.3133 C.3     1  ZINC000132775118   -0.1300
     12 C12        -4.7342    1.6259   51.2678 C.3     1  ZINC000132775118   -0.1200
     13 C13        -5.3359    3.0283   51.3599 C.3     1  ZINC000132775118   -0.1200
     14 C14        -6.1347    3.1713   52.6593 C.3     1  ZINC000132775118   -0.1200
     15 C15        -7.2481    2.1232   52.6569 C.3     1  ZINC000132775118    0.0700
     16 H16        -7.8835    2.2723   51.7839 H       1  ZINC000132775118    0.0600
     17 N17        -8.9731    3.6208   56.5268 N.am    1  ZINC000132775118   -0.6200
     18 C18        -9.9032    3.6695   57.6632 C.3     1  ZINC000132775118    0.1100
     19 C19        -9.6483    2.4551   58.5615 C.3     1  ZINC000132775118   -0.1200
     20 C20        -8.1710    2.4211   58.9594 C.3     1  ZINC000132775118   -0.1000
     21 C21        -7.9234    1.2468   59.8709 C.2     1  ZINC000132775118    0.5300
     22 O22        -7.6034    0.1740   59.4044 O.2     1  ZINC000132775118   -0.5300
     23 N23        -8.0577    1.3887   61.2044 N.am    1  ZINC000132775118   -0.6200
     24 C24        -8.4447    2.6250   61.8998 C.3     1  ZINC000132775118    0.1000
     25 C25        -8.4425    2.3197   63.4125 C.3     1  ZINC000132775118   -0.1300
     26 C26        -7.5065    1.0867   63.5169 C.3     1  ZINC000132775118   -0.1300
     27 C27        -7.8472    0.3285   62.2069 C.3     1  ZINC000132775118    0.1000
     28 C28        -7.3058    2.2838   57.7045 C.3     1  ZINC000132775118   -0.1200
     29 C29        -7.5347    3.4902   56.7964 C.3     1  ZINC000132775118    0.1200
     30 H30        -8.9435    4.0312   53.2119 H       1  ZINC000132775118    0.0700
     31 H31        -7.5815    4.2252   54.3414 H       1  ZINC000132775118    0.1200
     32 H32        -9.7344    1.2946   54.7302 H       1  ZINC000132775118    0.1300
     33 H33        -9.9458    1.7956   53.0384 H       1  ZINC000132775118    0.0700
     34 H34        -7.4818   -1.1830   52.4382 H       1  ZINC000132775118    0.4000
     35 H35        -5.4106   -0.4227   51.2625 H       1  ZINC000132775118    0.0800
     36 H36        -6.5239    0.7221   50.4713 H       1  ZINC000132775118    0.0700
     37 H37        -4.0535    1.4686   52.1045 H       1  ZINC000132775118    0.0700
     38 H38        -4.1833    1.5292   50.3322 H       1  ZINC000132775118    0.0700
     39 H39        -4.5349    3.7675   51.3445 H       1  ZINC000132775118    0.0700
     40 H40        -5.9964    3.1952   50.5089 H       1  ZINC000132775118    0.0600
     41 H41        -5.4748    3.0153   53.5126 H       1  ZINC000132775118    0.0800
     42 H42        -6.5723    4.1683   52.7111 H       1  ZINC000132775118    0.0700
     43 H43        -9.7385    4.5852   58.2311 H       1  ZINC000132775118    0.0800
     44 H44       -10.9295    3.6439   57.2966 H       1  ZINC000132775118    0.0900
     45 H45       -10.2648    2.5294   59.4572 H       1  ZINC000132775118    0.0800
     46 H46        -9.9003    1.5430   58.0203 H       1  ZINC000132775118    0.0800
     47 H47        -7.9135    3.3443   59.4785 H       1  ZINC000132775118    0.0900
     48 H48        -7.7260    3.4145   61.6799 H       1  ZINC000132775118    0.0700
     49 H49        -9.4423    2.9307   61.5848 H       1  ZINC000132775118    0.0700
     50 H50        -8.0367    3.1605   63.9750 H       1  ZINC000132775118    0.0800
     51 H51        -9.4464    2.0721   63.7575 H       1  ZINC000132775118    0.0800
     52 H52        -6.4600    1.3910   63.5352 H       1  ZINC000132775118    0.0800
     53 H53        -7.7516    0.4829   64.3906 H       1  ZINC000132775118    0.0900
     54 H54        -8.7528   -0.2640   62.3362 H       1  ZINC000132775118    0.0700
     55 H55        -7.0146   -0.3093   61.9104 H       1  ZINC000132775118    0.0800
     56 H56        -6.2551    2.2362   57.9904 H       1  ZINC000132775118    0.0800
     57 H57        -7.5799    1.3733   57.1716 H       1  ZINC000132775118    0.0800
     58 H58        -6.9972    3.3489   55.8587 H       1  ZINC000132775118    0.1000
     59 H59        -7.1783    4.3933   57.2918 H       1  ZINC000132775118    0.0700
@<TRIPOS>BOND
     1     1     2    2
     2     2     3    1
     3     2    17   am
     4     3     4    1
     5     3    30    1
     6     3    31    1
     7     4    15    1
     8     4     5    1
     9     5     6    1
    10     5    32    1
    11     5    33    1
    12     6     7    2
    13     6     8   am
    14     8     9    1
    15     8    34    1
    16     9    10    1
    17     9    15    1
    18     9    11    1
    19    11    12    1
    20    11    35    1
    21    11    36    1
    22    12    13    1
    23    12    37    1
    24    12    38    1
    25    13    14    1
    26    13    39    1
    27    13    40    1
    28    14    15    1
    29    14    41    1
    30    14    42    1
    31    15    16    1
    32    17    29    1
    33    17    18    1
    34    18    19    1
    35    18    43    1
    36    18    44    1
    37    19    20    1
    38    19    45    1
    39    19    46    1
    40    20    21    1
    41    20    28    1
    42    20    47    1
    43    21    22    2
    44    21    23   am
    45    23    27    1
    46    23    24    1
    47    24    25    1
    48    24    48    1
    49    24    49    1
    50    25    26    1
    51    25    50    1
    52    25    51    1
    53    26    27    1
    54    26    52    1
    55    26    53    1
    56    27    54    1
    57    27    55    1
    58    28    29    1
    59    28    56    1
    60    28    57    1
    61    29    58    1
    62    29    59    1
@<TRIPOS>SUBSTRUCTURE
     1 ZINC000132775118        1 TEMP              0 ****  ****    0 ROOT


##########                                Name:    ZINC000074782190
##########                DOCK_Rotatable_Bonds:                   9
##########                         Heavy_Atoms:                  25
##########                    Molecular_Weight:             341.453
##########                DOCK_Rotatable_Bonds:                   9
##########                       Formal_Charge:          -0.0200006
##########                     HBond_Acceptors:                   5
##########                        HBond_Donors:                   1
##########                         Heavy_Atoms:                  25
##########                          Grid_Score:          -30.627123
##########                     Grid_vdw_energy:          -30.075811
##########                      Grid_es_energy:           -0.551311
##########           Internal_energy_repulsive:           27.454647

@<TRIPOS>MOLECULE
ZINC000074782190
 52 53 1 0 0
SMALL
USER_CHARGES


@<TRIPOS>ATOM
      1 C1         -5.9277   -0.2154   51.8183 C.3     1  ZINC000074782190   -0.1100
      2 C2         -6.6340    1.1144   51.8794 C.ar    1  ZINC000074782190   -0.1200
      3 C3         -7.8523    1.2211   52.5215 C.ar    1  ZINC000074782190   -0.0800
      4 C4         -8.5012    2.4410   52.5775 C.ar    1  ZINC000074782190   -0.1500
      5 C5         -7.9325    3.5566   51.9917 C.ar    1  ZINC000074782190   -0.0900
      6 C6         -6.7138    3.4552   51.3487 C.ar    1  ZINC000074782190   -0.2100
      7 C7         -6.0584    2.2339   51.2957 C.ar    1  ZINC000074782190    0.1300
      8 O8         -4.8596    2.1315   50.6638 O.3     1  ZINC000074782190   -0.3000
      9 C9         -3.6876    2.2783   51.4681 C.3     1  ZINC000074782190    0.0700
     10 H10        -3.8137    1.7243   52.3984 H       1  ZINC000074782190    0.0800
     11 C11        -3.4669    3.7592   51.7823 C.3     1  ZINC000074782190   -0.1800
     12 C12        -2.4766    1.7318   50.7094 C.3     1  ZINC000074782190    0.1400
     13 N13        -1.2700    2.4434   51.1380 N.am    1  ZINC000074782190   -0.7500
     14 C14        -0.1787    2.4567   50.3471 C.2     1  ZINC000074782190    0.7100
     15 O15        -0.1957    1.8781   49.2779 O.2     1  ZINC000074782190   -0.5900
     16 N16         0.9314    3.1114   50.7414 N.am    1  ZINC000074782190   -0.6200
     17 C17         2.1176    3.1258   49.8818 C.3     1  ZINC000074782190    0.1800
     18 C18         3.0641    2.0355   50.3133 C.ar    1  ZINC000074782190   -0.1600
     19 C19         4.4349    2.2160   50.2138 C.ar    1  ZINC000074782190   -0.0500
     20 C20         5.2678    1.1856   50.6233 C.ar    1  ZINC000074782190   -0.1800
     21 C21         4.7076    0.0214   51.1135 C.ar    1  ZINC000074782190    0.1000
     22 N22         3.3983   -0.1154   51.1939 N.ar    1  ZINC000074782190   -0.4900
     23 C23         2.5765    0.8449   50.8188 C.ar    1  ZINC000074782190    0.1100
     24 C24         0.9519    3.8085   52.0298 C.3     1  ZINC000074782190    0.1300
     25 C25         2.3933    3.9068   52.5336 C.3     1  ZINC000074782190   -0.1800
     26 C26         0.3748    5.2150   51.8579 C.3     1  ZINC000074782190   -0.1800
     27 H27        -5.2779   -0.3220   52.6869 H       1  ZINC000074782190    0.0700
     28 H28        -6.6648   -1.0185   51.8152 H       1  ZINC000074782190    0.0600
     29 H29        -5.3296   -0.2677   50.9086 H       1  ZINC000074782190    0.0700
     30 H30        -8.2986    0.3510   52.9798 H       1  ZINC000074782190    0.1300
     31 H31        -9.4541    2.5222   53.0793 H       1  ZINC000074782190    0.1200
     32 H32        -8.4414    4.5081   52.0365 H       1  ZINC000074782190    0.1200
     33 H33        -6.2701    4.3270   50.8910 H       1  ZINC000074782190    0.1300
     34 H34        -3.3408    4.3131   50.8521 H       1  ZINC000074782190    0.0700
     35 H35        -4.3296    4.1485   52.3230 H       1  ZINC000074782190    0.0700
     36 H36        -2.5729    3.8712   52.3959 H       1  ZINC000074782190    0.0800
     37 H37        -2.3654    0.6682   50.9203 H       1  ZINC000074782190    0.0800
     38 H38        -2.6229    1.8765   49.6389 H       1  ZINC000074782190    0.0900
     39 H39        -1.2564    2.9051   51.9910 H       1  ZINC000074782190    0.4100
     40 H40         1.8184    2.9589   48.8471 H       1  ZINC000074782190    0.0900
     41 H41         2.6147    4.0923   49.9648 H       1  ZINC000074782190    0.1000
     42 H42         4.8446    3.1370   49.8262 H       1  ZINC000074782190    0.1400
     43 H43         6.3406    1.2915   50.5594 H       1  ZINC000074782190    0.1300
     44 H44         5.3493   -0.7859   51.4340 H       1  ZINC000074782190    0.1600
     45 H45         1.5097    0.6964   50.8995 H       1  ZINC000074782190    0.1500
     46 H46         0.3516    3.2552   52.7519 H       1  ZINC000074782190    0.1000
     47 H47         2.9723    4.5359   51.8576 H       1  ZINC000074782190    0.0600
     48 H48         2.4002    4.3438   53.5321 H       1  ZINC000074782190    0.0700
     49 H49         2.8341    2.9105   52.5699 H       1  ZINC000074782190    0.0600
     50 H50        -0.6846    5.1453   51.6108 H       1  ZINC000074782190    0.0700
     51 H51         0.4954    5.7732   52.7863 H       1  ZINC000074782190    0.0700
     52 H52         0.9025    5.7285   51.0541 H       1  ZINC000074782190    0.0700
@<TRIPOS>BOND
     1     1     2    1
     2     1    27    1
     3     1    28    1
     4     1    29    1
     5     2     7   ar
     6     2     3   ar
     7     3     4   ar
     8     3    30    1
     9     4     5   ar
    10     4    31    1
    11     5     6   ar
    12     5    32    1
    13     6     7   ar
    14     6    33    1
    15     7     8    1
    16     8     9    1
    17     9    10    1
    18     9    11    1
    19     9    12    1
    20    11    34    1
    21    11    35    1
    22    11    36    1
    23    12    13    1
    24    12    37    1
    25    12    38    1
    26    13    14   am
    27    13    39    1
    28    14    15    2
    29    14    16   am
    30    16    17    1
    31    16    24    1
    32    17    18    1
    33    17    40    1
    34    17    41    1
    35    18    23   ar
    36    18    19   ar
    37    19    20   ar
    38    19    42    1
    39    20    21   ar
    40    20    43    1
    41    21    22   ar
    42    21    44    1
    43    22    23   ar
    44    23    45    1
    45    24    25    1
    46    24    26    1
    47    24    46    1
    48    25    47    1
    49    25    48    1
    50    25    49    1
    51    26    50    1
    52    26    51    1
    53    26    52    1
@<TRIPOS>SUBSTRUCTURE
     1 ZINC000074782190        1 TEMP              0 ****  ****    0 ROOT


##########                                Name:    ZINC000123469372
##########                DOCK_Rotatable_Bonds:                   7
##########                         Heavy_Atoms:                  25
##########                    Molecular_Weight:             341.382
##########                DOCK_Rotatable_Bonds:                   7
##########                       Formal_Charge:          -0.0300001
##########                     HBond_Acceptors:                   5
##########                        HBond_Donors:                   2
##########                         Heavy_Atoms:                  25
##########                          Grid_Score:          -30.616045
##########                     Grid_vdw_energy:          -29.498800
##########                      Grid_es_energy:           -1.117244
##########           Internal_energy_repulsive:            7.780159

@<TRIPOS>MOLECULE
ZINC000123469372
 45 47 1 0 0
SMALL
USER_CHARGES


@<TRIPOS>ATOM
      1 C1         -7.0248   -0.3535   51.8149 C.3     1  ZINC000123469372   -0.1700
      2 C2         -6.9478    1.1703   51.9307 C.3     1  ZINC000123469372    0.1500
      3 H3         -7.3191    1.6238   51.0117 H       1  ZINC000123469372    0.0900
      4 C4         -7.8029    1.6359   53.1109 C.3     1  ZINC000123469372   -0.1600
      5 C5         -7.9429    3.1589   53.0696 C.3     1  ZINC000123469372    0.1500
      6 H6         -6.9554    3.6123   52.9836 H       1  ZINC000123469372    0.1100
      7 O7         -8.5723    3.6122   54.2698 O.3     1  ZINC000123469372   -0.5500
      8 C8         -8.7823    3.5542   51.8820 C.ar    1  ZINC000123469372   -0.1200
      9 C9         -8.1814    4.0907   50.7588 C.ar    1  ZINC000123469372   -0.1100
     10 C10        -8.9514    4.4533   49.6694 C.ar    1  ZINC000123469372   -0.1200
     11 C11       -10.3223    4.2790   49.7034 C.ar    1  ZINC000123469372   -0.1200
     12 C12       -10.9232    3.7416   50.8263 C.ar    1  ZINC000123469372   -0.1200
     13 C13       -10.1527    3.3750   51.9140 C.ar    1  ZINC000123469372   -0.1100
     14 N14        -5.5561    1.5738   52.1468 N.am    1  ZINC000123469372   -0.7100
     15 C15        -4.8052    1.9873   51.1068 C.2     1  ZINC000123469372    0.5700
     16 O16        -5.2828    2.0242   49.9878 O.2     1  ZINC000123469372   -0.5400
     17 C17        -3.4165    2.3918   51.3227 C.2     1  ZINC000123469372   -0.2200
     18 C18        -2.4523    2.0100   50.4492 C.2     1  ZINC000123469372    0.0000
     19 C19        -1.0691    2.4281   50.7255 C.ar    1  ZINC000123469372   -0.1200
     20 C20        -0.0827    2.3754   49.7418 C.ar    1  ZINC000123469372   -0.0900
     21 C21         1.2038    2.7777   50.0461 C.ar    1  ZINC000123469372    0.0700
     22 F22         2.1653    2.7301   49.0983 F       1  ZINC000123469372   -0.1400
     23 C23         1.5123    3.2310   51.3203 C.ar    1  ZINC000123469372   -0.1100
     24 C24         0.5403    3.2863   52.3025 C.ar    1  ZINC000123469372   -0.1200
     25 C25        -0.7526    2.8880   52.0157 C.ar    1  ZINC000123469372    0.1300
     26 O26        -1.7276    2.9299   52.9574 O.3     1  ZINC000123469372   -0.3000
     27 C27        -3.0520    3.2399   52.5134 C.3     1  ZINC000123469372    0.1100
     28 H28        -8.0603   -0.6537   51.6541 H       1  ZINC000123469372    0.0700
     29 H29        -6.4156   -0.6851   50.9741 H       1  ZINC000123469372    0.0600
     30 H30        -6.6535   -0.8070   52.7339 H       1  ZINC000123469372    0.0600
     31 H31        -8.7901    1.1784   53.0471 H       1  ZINC000123469372    0.0900
     32 H32        -7.3250    1.3401   54.0448 H       1  ZINC000123469372    0.0800
     33 H33        -8.1195    3.3380   55.0791 H       1  ZINC000123469372    0.3700
     34 H34        -7.1104    4.2269   50.7323 H       1  ZINC000123469372    0.1200
     35 H35        -8.4819    4.8731   48.7921 H       1  ZINC000123469372    0.1200
     36 H36       -10.9239    4.5629   48.8526 H       1  ZINC000123469372    0.1200
     37 H37       -11.9942    3.6057   50.8529 H       1  ZINC000123469372    0.1200
     38 H38       -10.6221    2.9551   52.7913 H       1  ZINC000123469372    0.1200
     39 H39        -5.1751    1.5433   53.0382 H       1  ZINC000123469372    0.4000
     40 H40        -2.6921    1.4176   49.5786 H       1  ZINC000123469372    0.1500
     41 H41        -0.3220    2.0224   48.7495 H       1  ZINC000123469372    0.1500
     42 H42         2.5209    3.5431   51.5476 H       1  ZINC000123469372    0.1500
     43 H43         0.7905    3.6400   53.2917 H       1  ZINC000123469372    0.1500
     44 H44        -3.1036    4.2943   52.2422 H       1  ZINC000123469372    0.0800
     45 H45        -3.7578    3.0436   53.3205 H       1  ZINC000123469372    0.1100
@<TRIPOS>BOND
     1     1     2    1
     2     1    28    1
     3     1    29    1
     4     1    30    1
     5     2     3    1
     6     2     4    1
     7     2    14    1
     8     4     5    1
     9     4    31    1
    10     4    32    1
    11     5     6    1
    12     5     7    1
    13     5     8    1
    14     7    33    1
    15     8    13   ar
    16     8     9   ar
    17     9    10   ar
    18     9    34    1
    19    10    11   ar
    20    10    35    1
    21    11    12   ar
    22    11    36    1
    23    12    13   ar
    24    12    37    1
    25    13    38    1
    26    14    15   am
    27    14    39    1
    28    15    16    2
    29    15    17    1
    30    17    27    1
    31    17    18    2
    32    18    19    1
    33    18    40    1
    34    19    25   ar
    35    19    20   ar
    36    20    21   ar
    37    20    41    1
    38    21    22    1
    39    21    23   ar
    40    23    24   ar
    41    23    42    1
    42    24    25   ar
    43    24    43    1
    44    25    26    1
    45    26    27    1
    46    27    44    1
    47    27    45    1
@<TRIPOS>SUBSTRUCTURE
     1 ZINC000123469372        1 TEMP              0 ****  ****    0 ROOT


##########                                Name:    ZINC000533131987
##########                DOCK_Rotatable_Bonds:                  11
##########                         Heavy_Atoms:                  30
##########                    Molecular_Weight:             419.403
##########                DOCK_Rotatable_Bonds:                  11
##########                       Formal_Charge:                0.01
##########                     HBond_Acceptors:                   9
##########                        HBond_Donors:                   3
##########                         Heavy_Atoms:                  30
##########                          Grid_Score:          -30.611732
##########                     Grid_vdw_energy:          -28.758032
##########                      Grid_es_energy:           -1.853701
##########           Internal_energy_repulsive:           26.593317

@<TRIPOS>MOLECULE
ZINC000533131987
 50 52 1 0 0
SMALL
USER_CHARGES


@<TRIPOS>ATOM
      1 O1         -2.8378    3.7337   50.8330 O.2     1  ZINC000533131987   -0.5700
      2 C2         -2.9236    3.0706   51.8485 C.2     1  ZINC000533131987    0.7100
      3 N3         -4.1293    2.6478   52.2774 N.am    1  ZINC000533131987   -0.7400
      4 C4         -5.3371    2.9921   51.5233 C.3     1  ZINC000533131987    0.1400
      5 C5         -6.2777    1.7860   51.4882 C.3     1  ZINC000533131987   -0.0900
      6 H6         -6.8605    1.8063   50.5672 H       1  ZINC000533131987    0.0900
      7 C7         -5.4560    0.4966   51.5433 C.3     1  ZINC000533131987    0.0800
      8 O8         -6.2621   -0.6009   51.1101 O.3     1  ZINC000533131987   -0.5600
      9 C9         -7.2223    1.8406   52.6907 C.3     1  ZINC000533131987   -0.0900
     10 C10        -8.4891    2.5584   52.3022 C.ar    1  ZINC000533131987    0.0000
     11 C11        -8.4657    3.5061   51.2964 C.ar    1  ZINC000533131987   -0.1100
     12 C12        -9.6279    4.1647   50.9400 C.ar    1  ZINC000533131987   -0.0800
     13 C13       -10.8132    3.8750   51.5891 C.ar    1  ZINC000533131987   -0.1300
     14 C14       -10.8368    2.9264   52.5947 C.ar    1  ZINC000533131987   -0.0700
     15 C15        -9.6758    2.2650   52.9481 C.ar    1  ZINC000533131987   -0.1700
     16 C16        -9.7015    1.2309   54.0440 C.3     1  ZINC000533131987    0.5100
     17 F17        -9.4659   -0.0347   53.4966 F       1  ZINC000533131987   -0.1800
     18 F18        -8.7088    1.5241   54.9852 F       1  ZINC000533131987   -0.1700
     19 F19       -10.9538    1.2436   54.6678 F       1  ZINC000533131987   -0.1800
     20 N20        -1.8124    2.7538   52.5423 N.am    1  ZINC000533131987   -0.6900
     21 C21        -0.5603    3.1929   52.0969 C.ar    1  ZINC000533131987    0.1600
     22 C22         0.1510    4.1295   52.8369 C.ar    1  ZINC000533131987   -0.1000
     23 C23         1.3883    4.5665   52.4013 C.ar    1  ZINC000533131987   -0.1000
     24 C24         1.9250    4.0754   51.2288 C.ar    1  ZINC000533131987   -0.1000
     25 C25         1.2181    3.1341   50.4781 C.ar    1  ZINC000533131987    0.0000
     26 C26         1.7910    2.6058   49.2217 C.2     1  ZINC000533131987    0.2300
     27 N27         1.5196    1.4386   48.6871 N.2     1  ZINC000533131987   -0.4700
     28 C28         2.2260    1.3112   47.5538 C.2     1  ZINC000533131987   -0.0400
     29 C29         2.9503    2.4334   47.3912 C.2     1  ZINC000533131987   -0.0700
     30 O30         2.6729    3.2431   48.4323 O.3     1  ZINC000533131987   -0.2000
     31 C31        -0.0272    2.6891   50.9205 C.ar    1  ZINC000533131987   -0.1000
     32 H32        -4.1973    2.1155   53.0855 H       1  ZINC000533131987    0.4000
     33 H33        -5.8396    3.8308   52.0051 H       1  ZINC000533131987    0.0700
     34 H34        -5.0633    3.2690   50.5051 H       1  ZINC000533131987    0.0800
     35 H35        -4.5885    0.5904   50.8900 H       1  ZINC000533131987    0.0400
     36 H36        -5.1231    0.3213   52.5663 H       1  ZINC000533131987    0.0600
     37 H37        -7.2128   -0.4252   51.1364 H       1  ZINC000533131987    0.3800
     38 H38        -7.4627    0.8265   53.0102 H       1  ZINC000533131987    0.0800
     39 H39        -6.7385    2.3742   53.5088 H       1  ZINC000533131987    0.0900
     40 H40        -7.5394    3.7324   50.7891 H       1  ZINC000533131987    0.1300
     41 H41        -9.6094    4.9058   50.1545 H       1  ZINC000533131987    0.1300
     42 H42       -11.7210    4.3901   51.3113 H       1  ZINC000533131987    0.1300
     43 H43       -11.7629    2.7003   53.1021 H       1  ZINC000533131987    0.1300
     44 H44        -1.8804    2.2214   53.3503 H       1  ZINC000533131987    0.4100
     45 H45        -0.2642    4.5176   53.7552 H       1  ZINC000533131987    0.1500
     46 H46         1.9363    5.2948   52.9804 H       1  ZINC000533131987    0.1400
     47 H47         2.8915    4.4195   50.8917 H       1  ZINC000533131987    0.1300
     48 H48         2.2153    0.4593   46.8900 H       1  ZINC000533131987    0.1900
     49 H49         3.6255    2.6473   46.5759 H       1  ZINC000533131987    0.2200
     50 H50        -0.5786    1.9611   50.3440 H       1  ZINC000533131987    0.1400
@<TRIPOS>BOND
     1     1     2    2
     2     2     3   am
     3     2    20   am
     4     3     4    1
     5     3    32    1
     6     4     5    1
     7     4    33    1
     8     4    34    1
     9     5     6    1
    10     5     7    1
    11     5     9    1
    12     7     8    1
    13     7    35    1
    14     7    36    1
    15     8    37    1
    16     9    10    1
    17     9    38    1
    18     9    39    1
    19    10    15   ar
    20    10    11   ar
    21    11    12   ar
    22    11    40    1
    23    12    13   ar
    24    12    41    1
    25    13    14   ar
    26    13    42    1
    27    14    15   ar
    28    14    43    1
    29    15    16    1
    30    16    17    1
    31    16    18    1
    32    16    19    1
    33    20    21    1
    34    20    44    1
    35    21    31   ar
    36    21    22   ar
    37    22    23   ar
    38    22    45    1
    39    23    24   ar
    40    23    46    1
    41    24    25   ar
    42    24    47    1
    43    25    26    1
    44    25    31   ar
    45    26    30    1
    46    26    27    2
    47    27    28    1
    48    28    29    2
    49    28    48    1
    50    29    30    1
    51    29    49    1
    52    31    50    1
@<TRIPOS>SUBSTRUCTURE
     1 ZINC000533131987        1 TEMP              0 ****  ****    0 ROOT


##########                                Name:    ZINC000052999724
##########                DOCK_Rotatable_Bonds:                   6
##########                         Heavy_Atoms:                  25
##########                    Molecular_Weight:             398.571
##########                DOCK_Rotatable_Bonds:                   6
##########                       Formal_Charge:           0.0399994
##########                     HBond_Acceptors:                   8
##########                        HBond_Donors:                   1
##########                         Heavy_Atoms:                  25
##########                          Grid_Score:          -30.611120
##########                     Grid_vdw_energy:          -30.197416
##########                      Grid_es_energy:           -0.413703
##########           Internal_energy_repulsive:           14.838869

@<TRIPOS>MOLECULE
ZINC000052999724
 47 49 1 0 0
SMALL
USER_CHARGES


@<TRIPOS>ATOM
      1 C1         -2.7423    3.9607   55.0803 C.3     1  ZINC000052999724   -0.1400
      2 C2         -3.3246    4.2809   53.7022 C.3     1  ZINC000052999724   -0.0400
      3 C3         -3.1459    5.7714   53.4069 C.3     1  ZINC000052999724   -0.1400
      4 C4         -2.6069    3.4714   52.6531 C.2     1  ZINC000052999724   -0.0400
      5 C5         -3.1937    3.0606   51.4894 C.2     1  ZINC000052999724   -0.2600
      6 C6         -4.5769    3.3371   51.0909 C.2     1  ZINC000052999724    0.6000
      7 O7         -4.8690    4.4197   50.6176 O.2     1  ZINC000052999724   -0.5200
      8 N8         -5.5253    2.3925   51.2485 N.am    1  ZINC000052999724   -0.6000
      9 C9         -5.1894    1.0831   51.8240 C.3     1  ZINC000052999724    0.1100
     10 C10        -6.1278    0.8072   53.0030 C.3     1  ZINC000052999724   -0.1400
     11 C11        -7.5793    0.9343   52.5349 C.3     1  ZINC000052999724    0.1500
     12 N12        -8.4799    0.6387   53.6519 N.am    1  ZINC000052999724   -1.1100
     13 S13       -10.0319    0.1430   53.3553 S.o2    1  ZINC000052999724    2.7200
     14 O14       -10.6976    1.2457   52.7552 O.2     1  ZINC000052999724   -0.9500
     15 O15        -9.9346   -1.1345   52.7404 O.2     1  ZINC000052999724   -0.9400
     16 C16       -10.8048   -0.1146   54.9177 C.2     1  ZINC000052999724   -0.8000
     17 C17       -11.4744    0.8111   55.6062 C.2     1  ZINC000052999724    0.0100
     18 C18       -11.9969    0.3766   56.8121 C.2     1  ZINC000052999724   -0.1600
     19 C19       -11.7517   -0.9019   57.1029 C.2     1  ZINC000052999724   -0.1700
     20 S20       -10.8180   -1.6335   55.8042 S.3     1  ZINC000052999724    0.2100
     21 C21        -7.8340    2.3592   52.0380 C.3     1  ZINC000052999724   -0.1500
     22 C22        -6.9160    2.6549   50.8538 C.3     1  ZINC000052999724    0.1100
     23 S23        -2.0235    2.1478   50.5464 S.3     1  ZINC000052999724    0.2100
     24 C24        -0.8248    2.3598   51.7420 C.2     1  ZINC000052999724   -0.2400
     25 C25        -1.2949    3.0774   52.7689 C.2     1  ZINC000052999724   -0.1300
     26 H26        -2.8696    2.8988   55.2908 H       1  ZINC000052999724    0.0600
     27 H27        -1.6810    4.2089   55.0929 H       1  ZINC000052999724    0.0600
     28 H28        -3.2614    4.5462   55.8391 H       1  ZINC000052999724    0.0600
     29 H29        -4.3859    4.0328   53.6896 H       1  ZINC000052999724    0.0800
     30 H30        -2.0846    6.0196   53.4194 H       1  ZINC000052999724    0.0600
     31 H31        -3.5607    5.9996   52.4250 H       1  ZINC000052999724    0.0600
     32 H32        -3.6650    6.3570   54.1656 H       1  ZINC000052999724    0.0600
     33 H33        -5.3152    0.3085   51.0677 H       1  ZINC000052999724    0.0800
     34 H34        -4.1567    1.0915   52.1732 H       1  ZINC000052999724    0.0900
     35 H35        -5.9536   -0.2011   53.3784 H       1  ZINC000052999724    0.0900
     36 H36        -5.9369    1.5295   53.7967 H       1  ZINC000052999724    0.0800
     37 H37        -7.7625    0.2291   51.7242 H       1  ZINC000052999724    0.0900
     38 H38        -8.1672    0.7332   54.5652 H       1  ZINC000052999724    0.4200
     39 H39       -11.5991    1.8229   55.2500 H       1  ZINC000052999724    0.1600
     40 H40       -12.5601    1.0238   57.4681 H       1  ZINC000052999724    0.1500
     41 H41       -12.0795   -1.4110   57.9973 H       1  ZINC000052999724    0.1800
     42 H42        -8.8741    2.4555   51.7267 H       1  ZINC000052999724    0.1000
     43 H43        -7.6271    3.0669   52.8409 H       1  ZINC000052999724    0.0800
     44 H44        -7.0232    3.6992   50.5603 H       1  ZINC000052999724    0.1000
     45 H45        -7.1802    2.0089   50.0166 H       1  ZINC000052999724    0.0800
     46 H46         0.1803    1.9702   51.6766 H       1  ZINC000052999724    0.1700
     47 H47        -0.6902    3.3222   53.6297 H       1  ZINC000052999724    0.1400
@<TRIPOS>BOND
     1     1     2    1
     2     1    26    1
     3     1    27    1
     4     1    28    1
     5     2     3    1
     6     2     4    1
     7     2    29    1
     8     3    30    1
     9     3    31    1
    10     3    32    1
    11     4    25    1
    12     4     5    2
    13     5     6    1
    14     5    23    1
    15     6     7    2
    16     6     8   am
    17     8    22    1
    18     8     9    1
    19     9    10    1
    20     9    33    1
    21     9    34    1
    22    10    11    1
    23    10    35    1
    24    10    36    1
    25    11    12    1
    26    11    21    1
    27    11    37    1
    28    12    13   am
    29    12    38    1
    30    13    14    2
    31    13    15    2
    32    13    16    1
    33    16    20    1
    34    16    17    2
    35    17    18    1
    36    17    39    1
    37    18    19    2
    38    18    40    1
    39    19    20    1
    40    19    41    1
    41    21    22    1
    42    21    42    1
    43    21    43    1
    44    22    44    1
    45    22    45    1
    46    23    24    1
    47    24    25    2
    48    24    46    1
    49    25    47    1
@<TRIPOS>SUBSTRUCTURE
     1 ZINC000052999724        1 TEMP              0 ****  ****    0 ROOT


##########                                Name:    ZINC000762020937
##########                DOCK_Rotatable_Bonds:                  10
##########                         Heavy_Atoms:                  28
##########                    Molecular_Weight:             391.467
##########                DOCK_Rotatable_Bonds:                  10
##########                       Formal_Charge:         -1.8999e-07
##########                     HBond_Acceptors:                   8
##########                        HBond_Donors:                   1
##########                         Heavy_Atoms:                  28
##########                          Grid_Score:          -30.600286
##########                     Grid_vdw_energy:          -31.459305
##########                      Grid_es_energy:            0.859018
##########           Internal_energy_repulsive:           46.205456

@<TRIPOS>MOLECULE
ZINC000762020937
 57 58 1 0 0
SMALL
USER_CHARGES


@<TRIPOS>ATOM
      1 C1         -6.3114   -0.3820   51.6608 C.3     1  ZINC000762020937    0.0200
      2 O2         -6.0333    0.9027   51.1001 O.3     1  ZINC000762020937   -0.3000
      3 C3         -5.3879    1.7970   51.8957 C.ar    1  ZINC000762020937    0.1100
      4 C4         -6.0321    2.3387   52.9959 C.ar    1  ZINC000762020937   -0.1700
      5 C5         -5.3743    3.2477   53.8042 C.ar    1  ZINC000762020937   -0.1000
      6 C6         -4.0741    3.6180   53.5169 C.ar    1  ZINC000762020937   -0.1000
      7 C7         -3.3620    4.6094   54.4008 C.3     1  ZINC000762020937    0.0200
      8 C8         -2.6745    3.8773   55.5244 C.2     1  ZINC000762020937    0.1900
      9 N9         -1.3830    3.8194   55.7438 N.2     1  ZINC000762020937   -0.4700
     10 C10        -1.2366    3.0625   56.8458 C.2     1  ZINC000762020937    0.1600
     11 C11         0.0658    2.6962   57.5096 C.3     1  ZINC000762020937    0.2600
     12 H12         0.3925    1.7189   57.1543 H       1  ZINC000762020937    0.1200
     13 N13         1.0810    3.6999   57.1803 N.am    1  ZINC000762020937   -0.7100
     14 C14         2.3128    3.3113   56.7952 C.2     1  ZINC000762020937    0.6600
     15 O15         2.5809    2.1286   56.7198 O.2     1  ZINC000762020937   -0.5600
     16 O16         3.2461    4.2337   56.4941 O.3     1  ZINC000762020937   -0.3600
     17 C17         4.5409    3.7430   56.0568 C.3     1  ZINC000762020937    0.1400
     18 C18         5.1574    2.8787   57.1586 C.3     1  ZINC000762020937   -0.1800
     19 C19         4.3669    2.9050   54.7886 C.3     1  ZINC000762020937   -0.1400
     20 C20         5.4627    4.9281   55.7625 C.3     1  ZINC000762020937   -0.1800
     21 C21        -0.1305    2.6480   59.0261 C.3     1  ZINC000762020937   -0.1000
     22 C22         1.1041    2.0250   59.6807 C.3     1  ZINC000762020937   -0.1400
     23 C23        -0.3291    4.0679   59.5602 C.3     1  ZINC000762020937   -0.1400
     24 N24        -2.4244    2.7054   57.2333 N.2     1  ZINC000762020937   -0.3700
     25 O25        -3.2649    3.1678   56.4909 O.3     1  ZINC000762020937    0.0900
     26 C26        -3.4251    3.0808   52.4204 C.ar    1  ZINC000762020937   -0.1500
     27 C27        -4.0765    2.1658   51.6096 C.ar    1  ZINC000762020937    0.1000
     28 O28        -3.4397    1.6365   50.5309 O.3     1  ZINC000762020937   -0.3100
     29 C29        -2.0185    1.7775   50.4828 C.3     1  ZINC000762020937    0.0200
     30 H30        -5.3763   -0.8644   51.9452 H       1  ZINC000762020937    0.0600
     31 H31        -6.9425   -0.2650   52.5418 H       1  ZINC000762020937    0.0600
     32 H32        -6.8276   -0.9964   50.9231 H       1  ZINC000762020937    0.1000
     33 H33        -7.0484    2.0514   53.2222 H       1  ZINC000762020937    0.1400
     34 H34        -5.8777    3.6692   54.6617 H       1  ZINC000762020937    0.1300
     35 H35        -2.6213    5.1527   53.8141 H       1  ZINC000762020937    0.1200
     36 H36        -4.0852    5.3126   54.8142 H       1  ZINC000762020937    0.1200
     37 H37         0.8666    4.6441   57.2393 H       1  ZINC000762020937    0.4100
     38 H38         4.5007    2.0344   57.3683 H       1  ZINC000762020937    0.0600
     39 H39         6.1293    2.5103   56.8303 H       1  ZINC000762020937    0.0700
     40 H40         5.2813    3.4757   58.0621 H       1  ZINC000762020937    0.0900
     41 H41         3.9277    3.5207   54.0037 H       1  ZINC000762020937    0.0700
     42 H42         5.3388    2.5365   54.4604 H       1  ZINC000762020937    0.0800
     43 H43         3.7102    2.0607   54.9983 H       1  ZINC000762020937    0.0700
     44 H44         5.5866    5.5252   56.6660 H       1  ZINC000762020937    0.0900
     45 H45         6.4346    4.5598   55.4343 H       1  ZINC000762020937    0.0700
     46 H46         5.0235    5.5438   54.9776 H       1  ZINC000762020937    0.0600
     47 H47        -1.0086    2.0458   59.2599 H       1  ZINC000762020937    0.0800
     48 H48         1.9821    2.6271   59.4470 H       1  ZINC000762020937    0.0600
     49 H49         0.9642    1.9906   60.7612 H       1  ZINC000762020937    0.0600
     50 H50         1.2455    1.0134   59.3003 H       1  ZINC000762020937    0.0500
     51 H51        -1.2087    4.5118   59.0939 H       1  ZINC000762020937    0.0500
     52 H52        -0.4690    4.0336   60.6406 H       1  ZINC000762020937    0.0600
     53 H53         0.5489    4.6701   59.3264 H       1  ZINC000762020937    0.0700
     54 H54        -2.4091    3.3719   52.1981 H       1  ZINC000762020937    0.1400
     55 H55        -1.5755    1.2915   51.3522 H       1  ZINC000762020937    0.0600
     56 H56        -1.6377    1.3128   49.5734 H       1  ZINC000762020937    0.1000
     57 H57        -1.7581    2.8359   50.4864 H       1  ZINC000762020937    0.0600
@<TRIPOS>BOND
     1     1     2    1
     2     1    30    1
     3     1    31    1
     4     1    32    1
     5     2     3    1
     6     3    27   ar
     7     3     4   ar
     8     4     5   ar
     9     4    33    1
    10     5     6   ar
    11     5    34    1
    12     6     7    1
    13     6    26   ar
    14     7     8    1
    15     7    35    1
    16     7    36    1
    17     8    25    1
    18     8     9    2
    19     9    10    1
    20    10    11    1
    21    10    24    2
    22    11    12    1
    23    11    13    1
    24    11    21    1
    25    13    14   am
    26    13    37    1
    27    14    15    2
    28    14    16    1
    29    16    17    1
    30    17    18    1
    31    17    19    1
    32    17    20    1
    33    18    38    1
    34    18    39    1
    35    18    40    1
    36    19    41    1
    37    19    42    1
    38    19    43    1
    39    20    44    1
    40    20    45    1
    41    20    46    1
    42    21    22    1
    43    21    23    1
    44    21    47    1
    45    22    48    1
    46    22    49    1
    47    22    50    1
    48    23    51    1
    49    23    52    1
    50    23    53    1
    51    24    25    1
    52    26    27   ar
    53    26    54    1
    54    27    28    1
    55    28    29    1
    56    29    55    1
    57    29    56    1
    58    29    57    1
@<TRIPOS>SUBSTRUCTURE
     1 ZINC000762020937        1 TEMP              0 ****  ****    0 ROOT


##########                                Name:    ZINC000675319328
##########                DOCK_Rotatable_Bonds:                   7
##########                         Heavy_Atoms:                  26
##########                    Molecular_Weight:             363.475
##########                DOCK_Rotatable_Bonds:                   7
##########                       Formal_Charge:          -0.0200007
##########                     HBond_Acceptors:                   6
##########                        HBond_Donors:                   1
##########                         Heavy_Atoms:                  26
##########                          Grid_Score:          -30.583054
##########                     Grid_vdw_energy:          -29.424959
##########                      Grid_es_energy:           -1.158095
##########           Internal_energy_repulsive:           36.810085

@<TRIPOS>MOLECULE
ZINC000675319328
 56 58 1 0 0
SMALL
USER_CHARGES


@<TRIPOS>ATOM
      1 C1         -2.1730    5.2305   57.4333 C.3     1  ZINC000675319328   -0.1600
      2 C2         -2.4492    3.8484   56.8382 C.3     1  ZINC000675319328    0.1600
      3 H3         -3.5198    3.6462   56.8706 H       1  ZINC000675319328    0.0900
      4 C4         -1.7049    2.7857   57.6492 C.3     1  ZINC000675319328   -0.1200
      5 C5         -0.3116    3.3038   58.0114 C.3     1  ZINC000675319328   -0.1200
      6 H6         -0.3791    4.2476   58.5525 H       1  ZINC000675319328    0.0800
      7 C7          0.4731    2.2481   58.8371 C.3     1  ZINC000675319328   -0.1500
      8 C8          1.9331    2.6094   58.4646 C.3     1  ZINC000675319328    0.0500
      9 O9          1.8826    2.9971   57.0824 O.3     1  ZINC000675319328   -0.3900
     10 C10         0.5635    3.4557   56.7487 C.3     1  ZINC000675319328    0.0500
     11 N11        -1.9876    3.8140   55.4482 N.am    1  ZINC000675319328   -0.7400
     12 C12        -2.6799    4.4643   54.4920 C.2     1  ZINC000675319328    0.7000
     13 O13        -3.6874    5.0795   54.7829 O.2     1  ZINC000675319328   -0.5900
     14 N14        -2.2552    4.4327   53.2133 N.am    1  ZINC000675319328   -0.6200
     15 C15        -1.0286    3.6774   52.8910 C.3     1  ZINC000675319328    0.1300
     16 C16        -1.1896    2.8807   51.5855 C.3     1  ZINC000675319328   -0.1300
     17 C17        -2.5765    2.2795   51.5250 C.3     1  ZINC000675319328    0.0700
     18 N18        -3.4664    3.1999   50.8193 N.3     1  ZINC000675319328   -0.5500
     19 C19        -4.4559    2.4659   50.0191 C.3     1  ZINC000675319328    0.1000
     20 C20        -5.5259    1.9144   50.9257 C.ar    1  ZINC000675319328   -0.0900
     21 C21        -5.2675    0.7985   51.6997 C.ar    1  ZINC000675319328   -0.0900
     22 C22        -6.2480    0.2918   52.5315 C.ar    1  ZINC000675319328   -0.1500
     23 C23        -7.4892    0.9025   52.5898 C.ar    1  ZINC000675319328    0.1000
     24 F24        -8.4483    0.4083   53.4029 F       1  ZINC000675319328   -0.1400
     25 C25        -7.7467    2.0204   51.8144 C.ar    1  ZINC000675319328   -0.1500
     26 C26        -6.7630    2.5282   50.9869 C.ar    1  ZINC000675319328   -0.0700
     27 C27        -4.0894    4.1972   51.6054 C.3     1  ZINC000675319328    0.0500
     28 C28        -3.0234    5.1363   52.2063 C.3     1  ZINC000675319328    0.1100
     29 H29        -2.7033    5.9875   56.8555 H       1  ZINC000675319328    0.0600
     30 H30        -2.5164    5.2561   58.4674 H       1  ZINC000675319328    0.0700
     31 H31        -1.1024    5.4327   57.4009 H       1  ZINC000675319328    0.0500
     32 H32        -2.2607    2.5696   58.5616 H       1  ZINC000675319328    0.0700
     33 H33        -1.6115    1.8758   57.0565 H       1  ZINC000675319328    0.0900
     34 H34         0.2974    2.3750   59.9053 H       1  ZINC000675319328    0.0800
     35 H35         0.2252    1.2359   58.5176 H       1  ZINC000675319328    0.0800
     36 H36         2.2858    3.4388   59.0776 H       1  ZINC000675319328    0.0600
     37 H37         2.5814    1.7422   58.5908 H       1  ZINC000675319328    0.0900
     38 H38         0.1535    2.8474   55.9424 H       1  ZINC000675319328    0.0700
     39 H39         0.6020    4.5010   56.4420 H       1  ZINC000675319328    0.0700
     40 H40        -1.1838    3.3233   55.2161 H       1  ZINC000675319328    0.3900
     41 H41        -0.1980    4.3750   52.7832 H       1  ZINC000675319328    0.0600
     42 H42        -0.8100    2.9871   53.7058 H       1  ZINC000675319328    0.0900
     43 H43        -1.0450    3.5459   50.7342 H       1  ZINC000675319328    0.0800
     44 H44        -0.4469    2.0836   51.5528 H       1  ZINC000675319328    0.0800
     45 H45        -2.5387    1.3290   50.9927 H       1  ZINC000675319328    0.0700
     46 H46        -2.9478    2.1173   52.5368 H       1  ZINC000675319328    0.0400
     47 H47        -4.9079    3.1407   49.2921 H       1  ZINC000675319328    0.0900
     48 H48        -3.9641    1.6455   49.4964 H       1  ZINC000675319328    0.0400
     49 H49        -4.2993    0.3223   51.6542 H       1  ZINC000675319328    0.1300
     50 H50        -6.0462   -0.5804   53.1356 H       1  ZINC000675319328    0.1400
     51 H51        -8.7146    2.4974   51.8587 H       1  ZINC000675319328    0.1400
     52 H52        -6.9634    3.4003   50.3823 H       1  ZINC000675319328    0.1300
     53 H53        -4.7723    4.7749   50.9823 H       1  ZINC000675319328    0.0900
     54 H54        -4.6500    3.7245   52.4118 H       1  ZINC000675319328    0.0300
     55 H55        -3.5135    5.9964   52.6626 H       1  ZINC000675319328    0.0700
     56 H56        -2.3541    5.4777   51.4167 H       1  ZINC000675319328    0.0900
@<TRIPOS>BOND
     1     1     2    1
     2     1    29    1
     3     1    30    1
     4     1    31    1
     5     2     3    1
     6     2     4    1
     7     2    11    1
     8     4     5    1
     9     4    32    1
    10     4    33    1
    11     5     6    1
    12     5    10    1
    13     5     7    1
    14     7     8    1
    15     7    34    1
    16     7    35    1
    17     8     9    1
    18     8    36    1
    19     8    37    1
    20     9    10    1
    21    10    38    1
    22    10    39    1
    23    11    12   am
    24    11    40    1
    25    12    13    2
    26    12    14   am
    27    14    28    1
    28    14    15    1
    29    15    16    1
    30    15    41    1
    31    15    42    1
    32    16    17    1
    33    16    43    1
    34    16    44    1
    35    17    18    1
    36    17    45    1
    37    17    46    1
    38    18    19    1
    39    18    27    1
    40    19    20    1
    41    19    47    1
    42    19    48    1
    43    20    26   ar
    44    20    21   ar
    45    21    22   ar
    46    21    49    1
    47    22    23   ar
    48    22    50    1
    49    23    24    1
    50    23    25   ar
    51    25    26   ar
    52    25    51    1
    53    26    52    1
    54    27    28    1
    55    27    53    1
    56    27    54    1
    57    28    55    1
    58    28    56    1
@<TRIPOS>SUBSTRUCTURE
     1 ZINC000675319328        1 TEMP              0 ****  ****    0 ROOT


##########                                Name:    ZINC000561219098
##########                DOCK_Rotatable_Bonds:                   4
##########                         Heavy_Atoms:                  28
##########                    Molecular_Weight:             423.273
##########                DOCK_Rotatable_Bonds:                   4
##########                       Formal_Charge:          0.00999953
##########                     HBond_Acceptors:                   9
##########                        HBond_Donors:                   1
##########                         Heavy_Atoms:                  28
##########                          Grid_Score:          -30.572384
##########                     Grid_vdw_energy:          -29.330112
##########                      Grid_es_energy:           -1.242271
##########           Internal_energy_repulsive:           10.802116

@<TRIPOS>MOLECULE
ZINC000561219098
 45 48 1 0 0
SMALL
USER_CHARGES


@<TRIPOS>ATOM
      1 C1        -15.0155    3.2862   50.3542 C.3     1  ZINC000561219098    0.0700
      2 N2        -13.5614    3.3859   50.2069 N.pl3   1  ZINC000561219098   -0.4500
      3 C3        -12.8723    3.2513   49.0373 C.2     1  ZINC000561219098   -0.0100
      4 C4        -11.5598    3.4056   49.2944 C.2     1  ZINC000561219098   -0.1700
      5 C5        -11.4269    3.6468   50.6851 C.2     1  ZINC000561219098   -0.1100
      6 C6        -10.1590    3.8777   51.4234 C.2     1  ZINC000561219098    0.1600
      7 N7        -10.0363    3.9719   52.7313 N.2     1  ZINC000561219098   -0.2700
      8 N8         -8.6882    4.1892   53.0412 N.pl3   1  ZINC000561219098   -0.4700
      9 C9         -7.9871    4.2247   51.8679 C.2     1  ZINC000561219098    0.0300
     10 C10        -6.5368    4.4307   51.7236 C.2     1  ZINC000561219098    0.5900
     11 O11        -6.0384    5.4926   52.0450 O.2     1  ZINC000561219098   -0.5000
     12 N12        -5.7611    3.4426   51.2354 N.am    1  ZINC000561219098   -0.6100
     13 C13        -6.3412    2.1494   50.8399 C.3     1  ZINC000561219098    0.0500
     14 C14        -5.5330    1.0319   51.5093 C.3     1  ZINC000561219098    0.0500
     15 O15        -4.1448    1.2190   51.2235 O.3     1  ZINC000561219098   -0.3700
     16 C16        -3.5998    2.4359   51.7394 C.3     1  ZINC000561219098    0.1200
     17 H17        -3.7502    2.4736   52.8183 H       1  ZINC000561219098    0.0900
     18 C18        -2.1253    2.4963   51.4341 C.ar    1  ZINC000561219098   -0.0500
     19 C19        -1.6591    2.0943   50.1969 C.ar    1  ZINC000561219098   -0.1000
     20 C20        -0.3047    2.1500   49.9160 C.ar    1  ZINC000561219098    0.1200
     21 F21         0.1514    1.7574   48.7065 F       1  ZINC000561219098   -0.1200
     22 C22         0.5828    2.6090   50.8758 C.ar    1  ZINC000561219098   -0.0600
     23 Cl23        2.2815    2.6800   50.5248 Cl      1  ZINC000561219098   -0.0300
     24 C24         0.1147    3.0110   52.1136 C.ar    1  ZINC000561219098   -0.0700
     25 C25        -1.2395    2.9597   52.3910 C.ar    1  ZINC000561219098   -0.0300
     26 Cl26       -1.8267    3.4649   53.9445 Cl      1  ZINC000561219098   -0.0400
     27 C27        -4.3099    3.6272   51.0764 C.3     1  ZINC000561219098    0.0900
     28 C28        -8.8898    4.0260   50.8458 C.2     1  ZINC000561219098   -0.1700
     29 C29       -12.6790    3.6336   51.2147 C.2     1  ZINC000561219098    0.0300
     30 H30       -15.4628    4.2709   50.2184 H       1  ZINC000561219098    0.0800
     31 H31       -15.4106    2.6010   49.6041 H       1  ZINC000561219098    0.0900
     32 H32       -15.2551    2.9124   51.3497 H       1  ZINC000561219098    0.0900
     33 H33       -13.3066    3.0542   48.0683 H       1  ZINC000561219098    0.1700
     34 H34       -10.7566    3.3551   48.5742 H       1  ZINC000561219098    0.1400
     35 H35        -8.3173    4.2963   53.9311 H       1  ZINC000561219098    0.4400
     36 H36        -7.3798    2.0976   51.1667 H       1  ZINC000561219098    0.1000
     37 H37        -6.2908    2.0404   49.7565 H       1  ZINC000561219098    0.0900
     38 H38        -5.6904    1.0645   52.5874 H       1  ZINC000561219098    0.0700
     39 H39        -5.8574    0.0660   51.1223 H       1  ZINC000561219098    0.1200
     40 H40        -2.3515    1.7362   49.4493 H       1  ZINC000561219098    0.1600
     41 H41         0.8060    3.3685   52.8624 H       1  ZINC000561219098    0.1600
     42 H42        -4.0529    3.6650   50.0179 H       1  ZINC000561219098    0.0900
     43 H43        -4.0038    4.5537   51.5624 H       1  ZINC000561219098    0.1100
     44 H44        -8.6621    3.9968   49.7905 H       1  ZINC000561219098    0.1600
     45 H45       -12.9297    3.7856   52.2542 H       1  ZINC000561219098    0.1700
@<TRIPOS>BOND
     1     1     2    1
     2     1    30    1
     3     1    31    1
     4     1    32    1
     5     2    29    1
     6     2     3    1
     7     3     4    2
     8     3    33    1
     9     4     5    1
    10     4    34    1
    11     5     6    1
    12     5    29    2
    13     6    28    1
    14     6     7    2
    15     7     8    1
    16     8     9    1
    17     8    35    1
    18     9    10    1
    19     9    28    2
    20    10    11    2
    21    10    12   am
    22    12    27    1
    23    12    13    1
    24    13    14    1
    25    13    36    1
    26    13    37    1
    27    14    15    1
    28    14    38    1
    29    14    39    1
    30    15    16    1
    31    16    17    1
    32    16    18    1
    33    16    27    1
    34    18    25   ar
    35    18    19   ar
    36    19    20   ar
    37    19    40    1
    38    20    21    1
    39    20    22   ar
    40    22    23    1
    41    22    24   ar
    42    24    25   ar
    43    24    41    1
    44    25    26    1
    45    27    42    1
    46    27    43    1
    47    28    44    1
    48    29    45    1
@<TRIPOS>SUBSTRUCTURE
     1 ZINC000561219098        1 TEMP              0 ****  ****    0 ROOT


##########                                Name:    ZINC000022858610
##########                DOCK_Rotatable_Bonds:                   9
##########                         Heavy_Atoms:                  26
##########                    Molecular_Weight:             369.343
##########                DOCK_Rotatable_Bonds:                   9
##########                       Formal_Charge:          0.00999956
##########                     HBond_Acceptors:                   9
##########                        HBond_Donors:                   2
##########                         Heavy_Atoms:                  26
##########                          Grid_Score:          -30.571865
##########                     Grid_vdw_energy:          -28.887379
##########                      Grid_es_energy:           -1.684487
##########           Internal_energy_repulsive:           18.162214

@<TRIPOS>MOLECULE
ZINC000022858610
 44 45 1 0 0
SMALL
USER_CHARGES


@<TRIPOS>ATOM
      1 C1        -10.0081    1.6044   54.1576 C.3     1  <0>         0.0100
      2 N2         -8.9917    0.6025   53.8104 N.3     1  <0>        -0.5300
      3 C3         -9.5967   -0.5432   53.1178 C.3     1  <0>         0.0200
      4 C4         -7.9188    1.1986   53.0033 C.3     1  <0>         0.1500
      5 H5         -8.3460    1.6527   52.1093 H       1  <0>         0.1200
      6 C6         -6.9224    0.1112   52.5965 C.3     1  <0>         0.1300
      7 N7         -5.6367    0.7279   52.2603 N.am    1  <0>        -0.6800
      8 C8         -5.4664    1.3200   51.0616 C.2     1  <0>         0.5100
      9 O9         -6.3784    1.3438   50.2614 O.2     1  <0>        -0.5100
     10 C10        -4.1552    1.9471   50.7181 C.2     1  <0>         0.5200
     11 O11        -3.9138    2.2593   49.5704 O.2     1  <0>        -0.4900
     12 N12        -3.2398    2.1665   51.6828 N.am    1  <0>        -0.6500
     13 C13        -2.0130    2.7532   51.3615 C.ar    1  <0>         0.1900
     14 C14        -1.1268    2.0959   50.5177 C.ar    1  <0>        -0.1200
     15 C15         0.0850    2.6787   50.2022 C.ar    1  <0>        -0.0700
     16 C16         0.4162    3.9152   50.7252 C.ar    1  <0>        -0.1300
     17 C17        -0.4637    4.5723   51.5660 C.ar    1  <0>        -0.0500
     18 C18        -1.6794    3.9982   51.8807 C.ar    1  <0>        -0.2100
     19 C19        -2.6375    4.7148   52.7969 C.3     1  <0>         0.5100
     20 F20        -3.0057    3.8639   53.8444 F       1  <0>        -0.1700
     21 F21        -2.0187    5.8559   53.3185 F       1  <0>        -0.1800
     22 F22        -3.7777    5.0900   52.0781 F       1  <0>        -0.1700
     23 C23        -7.2087    2.2534   53.8122 C.2     1  <0>        -0.0500
     24 C24        -7.3620    3.5830   53.6786 C.2     1  <0>        -0.1900
     25 C25        -6.5115    4.1911   54.6302 C.2     1  <0>        -0.2100
     26 C26        -5.8892    3.1968   55.2886 C.2     1  <0>        -0.0400
     27 O27        -6.3198    2.0251   54.7928 O.3     1  <0>        -0.1700
     28 H28       -10.6864    1.1906   54.9038 H       1  <0>         0.0700
     29 H29        -9.5207    2.4916   54.5620 H       1  <0>         0.0700
     30 H30       -10.5717    1.8748   53.2646 H       1  <0>         0.0500
     31 H31       -10.0777   -0.2011   52.2014 H       1  <0>         0.0300
     32 H32        -8.8222   -1.2697   52.8723 H       1  <0>         0.0700
     33 H33       -10.3393   -1.0086   53.7659 H       1  <0>         0.0800
     34 H34        -6.7860   -0.5848   53.4243 H       1  <0>         0.0900
     35 H35        -7.3053   -0.4265   51.7292 H       1  <0>         0.0800
     36 H36        -4.9081    0.7100   52.9003 H       1  <0>         0.4200
     37 H37        -3.4327    1.9171   52.6001 H       1  <0>         0.4300
     38 H38        -1.3847    1.1300   50.1091 H       1  <0>         0.1500
     39 H39         0.7747    2.1681   49.5465 H       1  <0>         0.1400
     40 H40         1.3644    4.3687   50.4768 H       1  <0>         0.1400
     41 H41        -0.2015    5.5375   51.9734 H       1  <0>         0.1500
     42 H42        -8.0100    4.0890   52.9782 H       1  <0>         0.1500
     43 H43        -6.3852    5.2508   54.7965 H       1  <0>         0.1500
     44 H44        -5.1688    3.3196   56.0837 H       1  <0>         0.2000
@<TRIPOS>BOND
     1     1     2    1
     2     1    28    1
     3     1    29    1
     4     1    30    1
     5     2     3    1
     6     2     4    1
     7     3    31    1
     8     3    32    1
     9     3    33    1
    10     4     5    1
    11     4     6    1
    12     4    23    1
    13     6     7    1
    14     6    34    1
    15     6    35    1
    16     7     8   am
    17     7    36    1
    18     8     9    2
    19     8    10    1
    20    10    11    2
    21    10    12   am
    22    12    13    1
    23    12    37    1
    24    13    18   ar
    25    13    14   ar
    26    14    15   ar
    27    14    38    1
    28    15    16   ar
    29    15    39    1
    30    16    17   ar
    31    16    40    1
    32    17    18   ar
    33    17    41    1
    34    18    19    1
    35    19    20    1
    36    19    21    1
    37    19    22    1
    38    23    27    1
    39    23    24    2
    40    24    25    1
    41    24    42    1
    42    25    26    2
    43    25    43    1
    44    26    27    1
    45    26    44    1
@<TRIPOS>SUBSTRUCTURE
     1 <0>         1 TEMP              0 ****  ****    0 ROOT


##########                                Name:    ZINC000281257088
##########                DOCK_Rotatable_Bonds:                   8
##########                         Heavy_Atoms:                  27
##########                    Molecular_Weight:             395.541
##########                DOCK_Rotatable_Bonds:                   8
##########                       Formal_Charge:          -0.0200005
##########                     HBond_Acceptors:                   7
##########                        HBond_Donors:                   1
##########                         Heavy_Atoms:                  27
##########                          Grid_Score:          -30.571823
##########                     Grid_vdw_energy:          -30.270157
##########                      Grid_es_energy:           -0.301667
##########           Internal_energy_repulsive:           22.744349

@<TRIPOS>MOLECULE
ZINC000281257088
 57 58 1 0 0
SMALL
USER_CHARGES


@<TRIPOS>ATOM
      1 C1         -9.4295    4.3252   52.4507 C.3     1  ZINC000281257088   -0.0700
      2 C2         -8.4154    3.2402   52.1956 C.2     1  ZINC000281257088    0.1000
      3 N3         -7.4720    3.2695   51.2895 N.2     1  ZINC000281257088   -0.3000
      4 N4         -6.7451    2.0751   51.3758 N.pl3   1  ZINC000281257088   -0.3700
      5 C5         -5.6007    1.7004   50.5412 C.3     1  ZINC000281257088    0.1500
      6 C6         -4.3572    1.5482   51.4194 C.3     1  ZINC000281257088   -0.6400
      7 S7         -3.1740    2.8656   51.0259 S.o2    1  ZINC000281257088    2.4300
      8 C8         -2.2828    3.0500   52.5951 C.3     1  ZINC000281257088   -0.6500
      9 O9         -2.2674    2.3816   50.0445 O.2     1  ZINC000281257088   -0.9300
     10 O10        -3.8969    4.0625   50.7724 O.2     1  ZINC000281257088   -0.9300
     11 C11        -7.2851    1.3306   52.3633 C.2     1  ZINC000281257088    0.0900
     12 C12        -6.8192   -0.0331   52.8041 C.3     1  ZINC000281257088   -0.1000
     13 C13        -8.3163    2.0304   52.8906 C.2     1  ZINC000281257088   -0.2300
     14 C14        -9.2062    1.5817   54.0209 C.3     1  ZINC000281257088    0.1400
     15 N15       -10.4371    0.9969   53.4725 N.3     1  ZINC000281257088   -0.6700
     16 C16       -11.5417    1.0958   54.4358 C.3     1  ZINC000281257088    0.1400
     17 H17       -11.5467    2.0904   54.8819 H       1  ZINC000281257088    0.0500
     18 C18       -11.3598    0.0615   55.5166 C.ar    1  ZINC000281257088   -0.0800
     19 C19       -10.7997   -1.1650   55.2116 C.ar    1  ZINC000281257088   -0.0600
     20 C20       -10.6324   -2.1144   56.2019 C.ar    1  ZINC000281257088   -0.1600
     21 C21       -11.0256   -1.8365   57.5001 C.ar    1  ZINC000281257088    0.1000
     22 F22       -10.8621   -2.7635   58.4691 F       1  ZINC000281257088   -0.1400
     23 C23       -11.5860   -0.6075   57.8045 C.ar    1  ZINC000281257088   -0.1600
     24 C24       -11.7479    0.3420   56.8135 C.ar    1  ZINC000281257088   -0.0900
     25 C25       -12.8697    0.8530   53.7159 C.3     1  ZINC000281257088   -0.0600
     26 C26       -14.0270    1.0757   54.6916 C.3     1  ZINC000281257088   -0.1400
     27 C27       -12.9984    1.8253   52.5415 C.3     1  ZINC000281257088   -0.1400
     28 C28       -12.9117   -0.5848   53.1946 C.3     1  ZINC000281257088   -0.1500
     29 H29        -9.0345    5.0262   53.1859 H       1  ZINC000281257088    0.0800
     30 H30        -9.6383    4.8536   51.5204 H       1  ZINC000281257088    0.0700
     31 H31       -10.3496    3.8807   52.8302 H       1  ZINC000281257088    0.0800
     32 H32        -5.8101    0.7550   50.0408 H       1  ZINC000281257088    0.1100
     33 H33        -5.4260    2.4756   49.7951 H       1  ZINC000281257088    0.1100
     34 H34        -4.6429    1.6180   52.4690 H       1  ZINC000281257088    0.1400
     35 H35        -3.8966    0.5782   51.2321 H       1  ZINC000281257088    0.1400
     36 H36        -1.8021    2.1064   52.8529 H       1  ZINC000281257088    0.1300
     37 H37        -1.5258    3.8278   52.4937 H       1  ZINC000281257088    0.1300
     38 H38        -2.9851    3.3268   53.3814 H       1  ZINC000281257088    0.1300
     39 H39        -6.0693    0.0748   53.5877 H       1  ZINC000281257088    0.0800
     40 H40        -7.6672   -0.6001   53.1882 H       1  ZINC000281257088    0.0900
     41 H41        -6.3842   -0.5604   51.9551 H       1  ZINC000281257088    0.0700
     42 H42        -8.6846    0.8348   54.6195 H       1  ZINC000281257088    0.0800
     43 H43        -9.4582    2.4377   54.6469 H       1  ZINC000281257088    0.0300
     44 H44       -10.6831    1.4294   52.5947 H       1  ZINC000281257088    0.3400
     45 H45       -10.4931   -1.3816   54.1989 H       1  ZINC000281257088    0.1400
     46 H46       -10.1955   -3.0728   55.9632 H       1  ZINC000281257088    0.1300
     47 H47       -11.8933   -0.3898   58.8167 H       1  ZINC000281257088    0.1300
     48 H48       -12.1847    1.3008   57.0508 H       1  ZINC000281257088    0.1300
     49 H49       -13.9970    2.1001   55.0629 H       1  ZINC000281257088    0.0600
     50 H50       -14.9730    0.9028   54.1787 H       1  ZINC000281257088    0.0500
     51 H51       -13.9352    0.3831   55.5282 H       1  ZINC000281257088    0.0600
     52 H52       -12.1739    1.6666   51.8464 H       1  ZINC000281257088    0.0500
     53 H53       -13.9445    1.6522   52.0286 H       1  ZINC000281257088    0.0600
     54 H54       -12.9685    2.8496   52.9129 H       1  ZINC000281257088    0.0600
     55 H55       -12.8984   -1.2770   54.0364 H       1  ZINC000281257088    0.0500
     56 H56       -13.8227   -0.7347   52.6152 H       1  ZINC000281257088    0.0600
     57 H57       -12.0438   -0.7670   52.5607 H       1  ZINC000281257088    0.0600
@<TRIPOS>BOND
     1     1     2    1
     2     1    29    1
     3     1    30    1
     4     1    31    1
     5     2    13    1
     6     2     3    2
     7     3     4    1
     8     4     5    1
     9     4    11    1
    10     5     6    1
    11     5    32    1
    12     5    33    1
    13     6     7    1
    14     6    34    1
    15     6    35    1
    16     7     8    1
    17     7     9    2
    18     7    10    2
    19     8    36    1
    20     8    37    1
    21     8    38    1
    22    11    12    1
    23    11    13    2
    24    12    39    1
    25    12    40    1
    26    12    41    1
    27    13    14    1
    28    14    15    1
    29    14    42    1
    30    14    43    1
    31    15    16    1
    32    15    44    1
    33    16    17    1
    34    16    18    1
    35    16    25    1
    36    18    24   ar
    37    18    19   ar
    38    19    20   ar
    39    19    45    1
    40    20    21   ar
    41    20    46    1
    42    21    22    1
    43    21    23   ar
    44    23    24   ar
    45    23    47    1
    46    24    48    1
    47    25    26    1
    48    25    27    1
    49    25    28    1
    50    26    49    1
    51    26    50    1
    52    26    51    1
    53    27    52    1
    54    27    53    1
    55    27    54    1
    56    28    55    1
    57    28    56    1
    58    28    57    1
@<TRIPOS>SUBSTRUCTURE
     1 ZINC000281257088        1 TEMP              0 ****  ****    0 ROOT


##########                                Name:    ZINC000523878927
##########                DOCK_Rotatable_Bonds:                   8
##########                         Heavy_Atoms:                  27
##########                    Molecular_Weight:             376.474
##########                DOCK_Rotatable_Bonds:                   8
##########                       Formal_Charge:          0.00999957
##########                     HBond_Acceptors:                   7
##########                        HBond_Donors:                   3
##########                         Heavy_Atoms:                  27
##########                          Grid_Score:          -30.537725
##########                     Grid_vdw_energy:          -30.128376
##########                      Grid_es_energy:           -0.409350
##########           Internal_energy_repulsive:            7.264334

@<TRIPOS>MOLECULE
ZINC000523878927
 56 58 1 0 0
SMALL
USER_CHARGES


@<TRIPOS>ATOM
      1 C1        -14.3638    0.8767   50.0542 C.3     1  ZINC000523878927   -0.1500
      2 C2        -14.5884    2.2366   50.7183 C.3     1  ZINC000523878927   -0.0900
      3 H3        -15.6520    2.3748   50.9127 H       1  ZINC000523878927    0.0700
      4 C4        -14.0915    3.3461   49.7893 C.3     1  ZINC000523878927   -0.1200
      5 C5        -12.5986    3.1522   49.5163 C.3     1  ZINC000523878927   -0.1200
      6 C6        -11.8272    3.2087   50.8365 C.3     1  ZINC000523878927   -0.1100
      7 C7        -12.3241    2.0993   51.7654 C.3     1  ZINC000523878927   -0.1000
      8 H8        -12.1641    1.1305   51.2924 H       1  ZINC000523878927    0.0800
      9 C9        -11.5528    2.1559   53.0855 C.3     1  ZINC000523878927    0.1400
     10 N10       -10.1222    1.9796   52.8232 N.am    1  ZINC000523878927   -0.7400
     11 C11        -9.6156    0.7423   52.6538 C.2     1  ZINC000523878927    0.7200
     12 O12       -10.3456   -0.2278   52.7199 O.2     1  ZINC000523878927   -0.5800
     13 N13        -8.2999    0.5804   52.4110 N.am    1  ZINC000523878927   -0.6400
     14 C14        -7.6161   -0.7097   52.2069 C.3     1  ZINC000523878927    0.1000
     15 C15        -6.3516   -0.3622   51.3823 C.3     1  ZINC000523878927   -0.1400
     16 C16        -5.9470    1.0051   51.9939 C.3     1  ZINC000523878927    0.1500
     17 H17        -5.3695    0.8632   52.9074 H       1  ZINC000523878927    0.1100
     18 N18        -5.1923    1.8034   51.0246 N.am    1  ZINC000523878927   -0.7300
     19 C19        -3.8457    1.8293   51.0759 C.2     1  ZINC000523878927    0.7100
     20 O20        -3.2572    1.1889   51.9255 O.2     1  ZINC000523878927   -0.5700
     21 N21        -3.1515    2.5650   50.1852 N.am    1  ZINC000523878927   -0.6800
     22 C22        -1.7521    2.5919   50.2385 C.ar    1  ZINC000523878927    0.1500
     23 C23        -1.0088    1.7691   49.4030 C.ar    1  ZINC000523878927   -0.1200
     24 C24         0.3710    1.7974   49.4567 C.ar    1  ZINC000523878927   -0.1300
     25 C25         1.0130    2.6453   50.3434 C.ar    1  ZINC000523878927    0.0800
     26 F26         2.3628    2.6713   50.3948 F       1  ZINC000523878927   -0.1400
     27 C27         0.2735    3.4670   51.1771 C.ar    1  ZINC000523878927   -0.1300
     28 C28        -1.1065    3.4455   51.1228 C.ar    1  ZINC000523878927   -0.0900
     29 C29        -7.3097    1.6615   52.2996 C.3     1  ZINC000523878927    0.1200
     30 C30       -13.8171    2.2931   52.0384 C.3     1  ZINC000523878927   -0.1100
     31 H31       -14.7178    0.0863   50.7160 H       1  ZINC000523878927    0.0500
     32 H32       -14.9133    0.8364   49.1137 H       1  ZINC000523878927    0.0500
     33 H33       -13.3003    0.7386   49.8597 H       1  ZINC000523878927    0.0600
     34 H34       -14.6410    3.3058   48.8488 H       1  ZINC000523878927    0.0600
     35 H35       -14.2515    4.3150   50.2625 H       1  ZINC000523878927    0.0600
     36 H36       -12.4386    2.1834   49.0433 H       1  ZINC000523878927    0.0700
     37 H37       -12.2446    3.9427   48.8545 H       1  ZINC000523878927    0.0600
     38 H38       -10.7636    3.0706   50.6420 H       1  ZINC000523878927    0.0600
     39 H39       -11.9873    4.1776   51.3096 H       1  ZINC000523878927    0.0600
     40 H40       -11.7185    3.1220   53.5621 H       1  ZINC000523878927    0.0700
     41 H41       -11.9019    1.3609   53.7447 H       1  ZINC000523878927    0.0700
     42 H42        -9.5397    2.7535   52.7717 H       1  ZINC000523878927    0.3900
     43 H43        -7.3359   -1.1463   53.1654 H       1  ZINC000523878927    0.0800
     44 H44        -8.2560   -1.3942   51.6499 H       1  ZINC000523878927    0.0800
     45 H45        -5.5691   -1.1055   51.5352 H       1  ZINC000523878927    0.1000
     46 H46        -6.5909   -0.2613   50.3238 H       1  ZINC000523878927    0.0800
     47 H47        -5.6617    2.3133   50.3461 H       1  ZINC000523878927    0.4000
     48 H48        -3.6210    3.0758   49.5073 H       1  ZINC000523878927    0.4100
     49 H49        -1.5093    1.1070   48.7117 H       1  ZINC000523878927    0.1400
     50 H50         0.9497    1.1575   48.8070 H       1  ZINC000523878927    0.1400
     51 H51         0.7761    4.1278   51.8680 H       1  ZINC000523878927    0.1400
     52 H52        -1.6829    4.0869   51.7730 H       1  ZINC000523878927    0.1500
     53 H53        -7.5838    2.3401   51.4919 H       1  ZINC000523878927    0.0700
     54 H54        -7.2556    2.2063   53.2421 H       1  ZINC000523878927    0.0800
     55 H55       -13.9771    3.2620   52.5115 H       1  ZINC000523878927    0.0700
     56 H56       -14.1711    1.5028   52.7003 H       1  ZINC000523878927    0.0700
@<TRIPOS>BOND
     1     1     2    1
     2     1    31    1
     3     1    32    1
     4     1    33    1
     5     2     3    1
     6     2    30    1
     7     2     4    1
     8     4     5    1
     9     4    34    1
    10     4    35    1
    11     5     6    1
    12     5    36    1
    13     5    37    1
    14     6     7    1
    15     6    38    1
    16     6    39    1
    17     7     8    1
    18     7     9    1
    19     7    30    1
    20     9    10    1
    21     9    40    1
    22     9    41    1
    23    10    11   am
    24    10    42    1
    25    11    12    2
    26    11    13   am
    27    13    29    1
    28    13    14    1
    29    14    15    1
    30    14    43    1
    31    14    44    1
    32    15    16    1
    33    15    45    1
    34    15    46    1
    35    16    17    1
    36    16    18    1
    37    16    29    1
    38    18    19   am
    39    18    47    1
    40    19    20    2
    41    19    21   am
    42    21    22    1
    43    21    48    1
    44    22    28   ar
    45    22    23   ar
    46    23    24   ar
    47    23    49    1
    48    24    25   ar
    49    24    50    1
    50    25    26    1
    51    25    27   ar
    52    27    28   ar
    53    27    51    1
    54    28    52    1
    55    29    53    1
    56    29    54    1
    57    30    55    1
    58    30    56    1
@<TRIPOS>SUBSTRUCTURE
     1 ZINC000523878927        1 TEMP              0 ****  ****    0 ROOT


##########                                Name:    ZINC000914736341
##########                DOCK_Rotatable_Bonds:                   7
##########                         Heavy_Atoms:                  27
##########                    Molecular_Weight:             384.905
##########                DOCK_Rotatable_Bonds:                   7
##########                       Formal_Charge:                0.02
##########                     HBond_Acceptors:                   5
##########                        HBond_Donors:                   1
##########                         Heavy_Atoms:                  27
##########                          Grid_Score:          -30.530676
##########                     Grid_vdw_energy:          -30.097687
##########                      Grid_es_energy:           -0.432989
##########           Internal_energy_repulsive:           27.075348

@<TRIPOS>MOLECULE
ZINC000914736341
 52 54 1 0 0
SMALL
USER_CHARGES


@<TRIPOS>ATOM
      1 C1          2.9486    4.6026   53.4847 C.3     1  ZINC000914736341   -0.1400
      2 C2          2.0950    5.2712   54.5642 C.3     1  ZINC000914736341   -0.0300
      3 C3          2.8328    6.4941   55.1130 C.3     1  ZINC000914736341   -0.1400
      4 C4          0.7599    5.7100   53.9595 C.3     1  ZINC000914736341    0.1300
      5 N5          0.0538    4.5392   53.4333 N.am    1  ZINC000914736341   -0.7200
      6 C6         -1.2937    4.5177   53.4131 C.2     1  ZINC000914736341    0.5300
      7 O7         -1.9217    5.4670   53.8319 O.2     1  ZINC000914736341   -0.5300
      8 C8         -2.0200    3.3141   52.8702 C.3     1  ZINC000914736341   -0.1200
      9 H9         -2.2560    2.6105   53.6686 H       1  ZINC000914736341    0.1200
     10 C10        -1.1983    2.6290   51.7538 C.3     1  ZINC000914736341   -0.1400
     11 C11        -2.2384    2.1734   50.7541 C.2     1  ZINC000914736341    0.5200
     12 O12        -2.0484    1.3572   49.8773 O.2     1  ZINC000914736341   -0.5200
     13 N13        -3.4036    2.8045   50.9792 N.am    1  ZINC000914736341   -0.6100
     14 C14        -4.6241    2.5903   50.1977 C.3     1  ZINC000914736341    0.1600
     15 C15        -5.5972    1.7667   51.0013 C.ar    1  ZINC000914736341   -0.1000
     16 C16        -5.2427    0.5017   51.4302 C.ar    1  ZINC000914736341   -0.0800
     17 C17        -6.1353   -0.2540   52.1675 C.ar    1  ZINC000914736341   -0.1100
     18 C18        -7.3829    0.2548   52.4757 C.ar    1  ZINC000914736341   -0.1000
     19 C19        -7.7387    1.5201   52.0473 C.ar    1  ZINC000914736341   -0.1100
     20 C20        -6.8437    2.2791   51.3148 C.ar    1  ZINC000914736341   -0.0300
     21 Cl21       -7.2898    3.8681   50.7765 Cl      1  ZINC000914736341   -0.0600
     22 C22        -3.2967    3.7355   52.1095 C.3     1  ZINC000914736341    0.1000
     23 C23         1.8427    4.2931   55.6825 C.ar    1  ZINC000914736341   -0.0700
     24 C24         0.6760    4.3719   56.4196 C.ar    1  ZINC000914736341   -0.1200
     25 C25         0.4446    3.4745   57.4454 C.ar    1  ZINC000914736341   -0.1200
     26 C26         1.3798    2.4982   57.7338 C.ar    1  ZINC000914736341   -0.1200
     27 C27         2.5461    2.4189   56.9960 C.ar    1  ZINC000914736341   -0.1200
     28 C28         2.7756    3.3135   55.9675 C.ar    1  ZINC000914736341   -0.1100
     29 H29         3.8998    4.2901   53.9154 H       1  ZINC000914736341    0.0600
     30 H30         2.4230    3.7315   53.0937 H       1  ZINC000914736341    0.0600
     31 H31         3.1310    5.3102   52.6758 H       1  ZINC000914736341    0.0600
     32 H32         3.0152    7.2016   54.3042 H       1  ZINC000914736341    0.0600
     33 H33         2.2246    6.9705   55.8820 H       1  ZINC000914736341    0.0600
     34 H34         3.7840    6.1815   55.5438 H       1  ZINC000914736341    0.0600
     35 H35         0.1515    6.1860   54.7286 H       1  ZINC000914736341    0.0700
     36 H36         0.9424    6.4179   53.1510 H       1  ZINC000914736341    0.0700
     37 H37         0.5561    3.7795   53.0994 H       1  ZINC000914736341    0.4000
     38 H38        -0.5127    3.3404   51.2935 H       1  ZINC000914736341    0.1100
     39 H39        -0.6519    1.7741   52.1522 H       1  ZINC000914736341    0.1100
     40 H40        -5.0751    3.5531   49.9570 H       1  ZINC000914736341    0.1000
     41 H41        -4.3774    2.0639   49.2757 H       1  ZINC000914736341    0.1000
     42 H42        -4.2683    0.1033   51.1891 H       1  ZINC000914736341    0.1400
     43 H43        -5.8578   -1.2425   52.5025 H       1  ZINC000914736341    0.1300
     44 H44        -8.0801   -0.3362   53.0510 H       1  ZINC000914736341    0.1300
     45 H45        -8.7135    1.9176   52.2881 H       1  ZINC000914736341    0.1400
     46 H46        -4.1695    3.6453   52.7562 H       1  ZINC000914736341    0.1000
     47 H47        -3.1988    4.7588   51.7473 H       1  ZINC000914736341    0.0900
     48 H48        -0.0546    5.1346   56.1943 H       1  ZINC000914736341    0.1300
     49 H49        -0.4667    3.5365   58.0217 H       1  ZINC000914736341    0.1200
     50 H50         1.1993    1.7976   58.5357 H       1  ZINC000914736341    0.1200
     51 H51         3.2768    1.6563   57.2216 H       1  ZINC000914736341    0.1200
     52 H52         3.6868    3.2514   55.3911 H       1  ZINC000914736341    0.1200
@<TRIPOS>BOND
     1     1     2    1
     2     1    29    1
     3     1    30    1
     4     1    31    1
     5     2     3    1
     6     2     4    1
     7     2    23    1
     8     3    32    1
     9     3    33    1
    10     3    34    1
    11     4     5    1
    12     4    35    1
    13     4    36    1
    14     5     6   am
    15     5    37    1
    16     6     7    2
    17     6     8    1
    18     8     9    1
    19     8    22    1
    20     8    10    1
    21    10    11    1
    22    10    38    1
    23    10    39    1
    24    11    12    2
    25    11    13   am
    26    13    14    1
    27    13    22    1
    28    14    15    1
    29    14    40    1
    30    14    41    1
    31    15    20   ar
    32    15    16   ar
    33    16    17   ar
    34    16    42    1
    35    17    18   ar
    36    17    43    1
    37    18    19   ar
    38    18    44    1
    39    19    20   ar
    40    19    45    1
    41    20    21    1
    42    22    46    1
    43    22    47    1
    44    23    28   ar
    45    23    24   ar
    46    24    25   ar
    47    24    48    1
    48    25    26   ar
    49    25    49    1
    50    26    27   ar
    51    26    50    1
    52    27    28   ar
    53    27    51    1
    54    28    52    1
@<TRIPOS>SUBSTRUCTURE
     1 ZINC000914736341        1 TEMP              0 ****  ****    0 ROOT


##########                                Name:    ZINC000182378855
##########                DOCK_Rotatable_Bonds:                   8
##########                         Heavy_Atoms:                  27
##########                    Molecular_Weight:              394.83
##########                DOCK_Rotatable_Bonds:                   8
##########                       Formal_Charge:          -0.0200001
##########                     HBond_Acceptors:                   8
##########                        HBond_Donors:                   1
##########                         Heavy_Atoms:                  27
##########                          Grid_Score:          -30.504959
##########                     Grid_vdw_energy:          -30.402262
##########                      Grid_es_energy:           -0.102697
##########           Internal_energy_repulsive:           15.009324

@<TRIPOS>MOLECULE
ZINC000182378855
 47 49 1 0 0
SMALL
USER_CHARGES


@<TRIPOS>ATOM
      1 C1         -0.3191    3.0703   58.8673 C.3     1  ZINC000182378855    0.0300
      2 O2         -1.5916    3.0372   58.2181 O.3     1  ZINC000182378855   -0.3900
      3 C3         -1.5860    3.5880   56.8995 C.3     1  ZINC000182378855    0.0600
      4 C4         -2.9927    3.5010   56.3044 C.3     1  ZINC000182378855    0.0700
      5 O5         -3.9031    4.2369   57.1240 O.3     1  ZINC000182378855   -0.2900
      6 C6         -5.2024    4.2607   56.7336 C.ar    1  ZINC000182378855    0.3300
      7 C7         -5.5865    3.5814   55.5853 C.ar    1  ZINC000182378855   -0.1300
      8 C8         -6.9270    3.6153   55.1965 C.ar    1  ZINC000182378855   -0.0600
      9 C9         -7.3842    2.9054   53.9790 C.2     1  ZINC000182378855    0.5600
     10 O10        -8.5548    2.9455   53.6559 O.2     1  ZINC000182378855   -0.5200
     11 N11        -6.5016    2.2152   53.2301 N.am    1  ZINC000182378855   -0.7100
     12 C12        -6.9533    1.5146   52.0252 C.3     1  ZINC000182378855    0.1200
     13 H13        -7.7757    2.0548   51.5563 H       1  ZINC000182378855    0.1100
     14 C14        -7.3800    0.0695   52.3672 C.3     1  ZINC000182378855   -0.1700
     15 C15        -6.4174   -0.8116   51.5404 C.3     1  ZINC000182378855    0.0400
     16 O16        -5.2584    0.0200   51.3141 O.3     1  ZINC000182378855   -0.3600
     17 C17        -5.7834    1.3357   51.0325 C.3     1  ZINC000182378855    0.1100
     18 H18        -6.1457    1.3880   50.0058 H       1  ZINC000182378855    0.1000
     19 C19        -4.7275    2.3840   51.2716 C.ar    1  ZINC000182378855   -0.0500
     20 C20        -5.0582    3.7245   51.2073 C.ar    1  ZINC000182378855   -0.1100
     21 C21        -4.0920    4.6877   51.4319 C.ar    1  ZINC000182378855   -0.0800
     22 C22        -2.7910    4.3107   51.7101 C.ar    1  ZINC000182378855   -0.0700
     23 Cl23       -1.5763    5.5199   51.9858 Cl      1  ZINC000182378855   -0.0400
     24 C24        -2.4577    2.9668   51.7692 C.ar    1  ZINC000182378855    0.1200
     25 F25        -1.1872    2.5966   52.0413 F       1  ZINC000182378855   -0.1200
     26 C26        -3.4276    2.0042   51.5496 C.ar    1  ZINC000182378855   -0.1300
     27 C27        -7.8272    4.3375   55.9878 C.ar    1  ZINC000182378855   -0.1900
     28 C28        -7.3620    4.9848   57.1145 C.ar    1  ZINC000182378855    0.1400
     29 N29        -6.0889    4.9261   57.4540 N.ar    1  ZINC000182378855   -0.5200
     30 H30         0.0190    4.1031   58.9516 H       1  ZINC000182378855    0.0400
     31 H31        -0.4075    2.6345   59.8625 H       1  ZINC000182378855    0.0900
     32 H32         0.4019    2.4985   58.2831 H       1  ZINC000182378855    0.0400
     33 H33        -1.2737    4.6314   56.9429 H       1  ZINC000182378855    0.0600
     34 H34        -0.8916    3.0266   56.2743 H       1  ZINC000182378855    0.0700
     35 H35        -2.9884    3.9211   55.2985 H       1  ZINC000182378855    0.0800
     36 H36        -3.3051    2.4576   56.2609 H       1  ZINC000182378855    0.0800
     37 H37        -4.8598    3.0356   55.0018 H       1  ZINC000182378855    0.1600
     38 H38        -5.5673    2.1821   53.4887 H       1  ZINC000182378855    0.4000
     39 H39        -7.2548   -0.1237   53.4326 H       1  ZINC000182378855    0.0900
     40 H40        -8.4125   -0.1055   52.0650 H       1  ZINC000182378855    0.0900
     41 H41        -6.1406   -1.7028   52.1036 H       1  ZINC000182378855    0.1000
     42 H42        -6.8775   -1.0903   50.5925 H       1  ZINC000182378855    0.0700
     43 H43        -6.0730    4.0197   50.9853 H       1  ZINC000182378855    0.1500
     44 H44        -4.3526    5.7347   51.3857 H       1  ZINC000182378855    0.1500
     45 H45        -3.1692    0.9565   51.5957 H       1  ZINC000182378855    0.1500
     46 H46        -8.8724    4.3874   55.7205 H       1  ZINC000182378855    0.1400
     47 H47        -8.0514    5.5439   57.7297 H       1  ZINC000182378855    0.1700
@<TRIPOS>BOND
     1     1     2    1
     2     1    30    1
     3     1    31    1
     4     1    32    1
     5     2     3    1
     6     3     4    1
     7     3    33    1
     8     3    34    1
     9     4     5    1
    10     4    35    1
    11     4    36    1
    12     5     6    1
    13     6    29   ar
    14     6     7   ar
    15     7     8   ar
    16     7    37    1
    17     8     9    1
    18     8    27   ar
    19     9    10    2
    20     9    11   am
    21    11    12    1
    22    11    38    1
    23    12    13    1
    24    12    17    1
    25    12    14    1
    26    14    15    1
    27    14    39    1
    28    14    40    1
    29    15    16    1
    30    15    41    1
    31    15    42    1
    32    16    17    1
    33    17    18    1
    34    17    19    1
    35    19    26   ar
    36    19    20   ar
    37    20    21   ar
    38    20    43    1
    39    21    22   ar
    40    21    44    1
    41    22    23    1
    42    22    24   ar
    43    24    25    1
    44    24    26   ar
    45    26    45    1
    46    27    28   ar
    47    27    46    1
    48    28    29   ar
    49    28    47    1
@<TRIPOS>SUBSTRUCTURE
     1 ZINC000182378855        1 TEMP              0 ****  ****    0 ROOT


##########                                Name:    ZINC000573150059
##########                DOCK_Rotatable_Bonds:                   7
##########                         Heavy_Atoms:                  23
##########                    Molecular_Weight:             378.269
##########                DOCK_Rotatable_Bonds:                   7
##########                       Formal_Charge:        -2.98023e-07
##########                     HBond_Acceptors:                   5
##########                        HBond_Donors:                   2
##########                         Heavy_Atoms:                  23
##########                          Grid_Score:          -30.488890
##########                     Grid_vdw_energy:          -29.556757
##########                      Grid_es_energy:           -0.932132
##########           Internal_energy_repulsive:           10.776761

@<TRIPOS>MOLECULE
ZINC000573150059
 43 44 1 0 0
SMALL
USER_CHARGES


@<TRIPOS>ATOM
      1 C1         -9.1088    0.0230   64.2798 C.3     1  ZINC000573150059    0.0300
      2 O2         -9.6591   -0.3111   63.0041 O.3     1  ZINC000573150059   -0.3600
      3 C3         -9.5763    0.7417   62.0415 C.3     1  ZINC000573150059    0.0700
      4 H4        -10.0511    1.6377   62.4412 H       1  ZINC000573150059    0.0900
      5 C5         -8.1070    1.0372   61.7339 C.3     1  ZINC000573150059   -0.1700
      6 C6        -10.2798    0.3223   60.7764 C.2     1  ZINC000573150059    0.5100
      7 O7        -11.4410    0.6246   60.5995 O.2     1  ZINC000573150059   -0.4900
      8 N8         -9.6187   -0.3888   59.8418 N.am    1  ZINC000573150059   -0.6700
      9 C9        -10.2719   -0.7783   58.6673 C.ar    1  ZINC000573150059    0.1900
     10 C10       -11.0971   -1.8958   58.6685 C.ar    1  ZINC000573150059   -0.2000
     11 C11       -11.7426   -2.2813   57.5092 C.ar    1  ZINC000573150059   -0.0500
     12 C12       -11.5704   -1.5570   56.3457 C.ar    1  ZINC000573150059   -0.2200
     13 C13       -10.7465   -0.4377   56.3378 C.ar    1  ZINC000573150059    0.2400
     14 N14       -10.5731    0.2945   55.1611 N.pl3   1  ZINC000573150059   -0.7300
     15 C15       -10.3946   -0.4019   53.8846 C.3     1  ZINC000573150059    0.2000
     16 H16       -10.3694   -1.4777   54.0580 H       1  ZINC000573150059    0.1000
     17 C17       -11.5587   -0.0627   52.9515 C.3     1  ZINC000573150059   -0.1700
     18 C18        -9.0991    0.0353   53.2508 C.ar    1  ZINC000573150059    0.1400
     19 C19        -8.6125    1.3049   53.4978 C.ar    1  ZINC000573150059   -0.1600
     20 C20        -7.4195    1.6976   52.9104 C.ar    1  ZINC000573150059   -0.0400
     21 C21        -6.7577    0.7938   52.0924 C.ar    1  ZINC000573150059   -0.1500
     22 Br22       -5.1262    1.2694   51.2629 Br      1  ZINC000573150059   -0.0300
     23 C23        -7.3062   -0.4600   51.8917 C.ar    1  ZINC000573150059    0.1400
     24 N24        -8.4406   -0.8001   52.4712 N.ar    1  ZINC000573150059   -0.4700
     25 C25       -10.1006   -0.0454   57.5016 C.ar    1  ZINC000573150059   -0.1900
     26 H26        -8.0539    0.2728   64.1662 H       1  ZINC000573150059    0.0500
     27 H27        -9.6424    0.8792   64.6927 H       1  ZINC000573150059    0.0400
     28 H28        -9.2102   -0.8278   64.9535 H       1  ZINC000573150059    0.0900
     29 H29        -7.6321    0.1412   61.3342 H       1  ZINC000573150059    0.0700
     30 H30        -8.0438    1.8403   60.9996 H       1  ZINC000573150059    0.0700
     31 H31        -7.5982    1.3406   62.6488 H       1  ZINC000573150059    0.0700
     32 H32        -8.6900   -0.6306   59.9832 H       1  ZINC000573150059    0.4100
     33 H33       -11.2339   -2.4642   59.5766 H       1  ZINC000573150059    0.1200
     34 H34       -12.3831   -3.1509   57.5128 H       1  ZINC000573150059    0.1300
     35 H35       -12.0761   -1.8610   55.4411 H       1  ZINC000573150059    0.1200
     36 H36       -10.5709    1.2641   55.1890 H       1  ZINC000573150059    0.4100
     37 H37       -11.5839    1.0131   52.7780 H       1  ZINC000573150059    0.0600
     38 H38       -11.4258   -0.5809   52.0018 H       1  ZINC000573150059    0.0700
     39 H39       -12.4958   -0.3789   53.4099 H       1  ZINC000573150059    0.0700
     40 H40        -9.1548    1.9828   54.1402 H       1  ZINC000573150059    0.1500
     41 H41        -7.0155    2.6838   53.0853 H       1  ZINC000573150059    0.1500
     42 H42        -6.7977   -1.1697   51.2560 H       1  ZINC000573150059    0.1700
     43 H43        -9.4602    0.8243   57.4983 H       1  ZINC000573150059    0.1400
@<TRIPOS>BOND
     1     1     2    1
     2     1    26    1
     3     1    27    1
     4     1    28    1
     5     2     3    1
     6     3     4    1
     7     3     5    1
     8     3     6    1
     9     5    29    1
    10     5    30    1
    11     5    31    1
    12     6     7    2
    13     6     8   am
    14     8     9    1
    15     8    32    1
    16     9    25   ar
    17     9    10   ar
    18    10    11   ar
    19    10    33    1
    20    11    12   ar
    21    11    34    1
    22    12    13   ar
    23    12    35    1
    24    13    14    1
    25    13    25   ar
    26    14    15    1
    27    14    36    1
    28    15    16    1
    29    15    17    1
    30    15    18    1
    31    17    37    1
    32    17    38    1
    33    17    39    1
    34    18    24   ar
    35    18    19   ar
    36    19    20   ar
    37    19    40    1
    38    20    21   ar
    39    20    41    1
    40    21    22    1
    41    21    23   ar
    42    23    24   ar
    43    23    42    1
    44    25    43    1
@<TRIPOS>SUBSTRUCTURE
     1 ZINC000573150059        1 TEMP              0 ****  ****    0 ROOT


##########                                Name:    ZINC000011157684
##########                DOCK_Rotatable_Bonds:                   7
##########                         Heavy_Atoms:                  25
##########                    Molecular_Weight:             374.866
##########                DOCK_Rotatable_Bonds:                   7
##########                       Formal_Charge:           0.0400001
##########                     HBond_Acceptors:                   6
##########                        HBond_Donors:                   2
##########                         Heavy_Atoms:                  25
##########                          Grid_Score:          -30.484005
##########                     Grid_vdw_energy:          -29.781702
##########                      Grid_es_energy:           -0.702303
##########           Internal_energy_repulsive:            7.826005

@<TRIPOS>MOLECULE
ZINC000011157684
 41 43 1 0 0
SMALL
USER_CHARGES


@<TRIPOS>ATOM
      1 O1         -6.4058    3.3575   50.7041 O.2     1  ZINC000011157684   -0.5200
      2 C2         -5.3703    3.1884   51.3125 C.2     1  ZINC000011157684    0.5100
      3 C3         -4.0572    3.1659   50.5733 C.3     1  ZINC000011157684    0.1000
      4 N4         -3.1595    2.1938   51.2020 N.pl3   1  ZINC000011157684   -0.7300
      5 C5         -1.7797    2.2738   50.9857 C.ar    1  ZINC000011157684    0.2200
      6 C6         -1.2395    1.8507   49.7791 C.ar    1  ZINC000011157684   -0.1600
      7 C7          0.1235    1.9310   49.5672 C.ar    1  ZINC000011157684   -0.0900
      8 C8          0.9510    2.4326   50.5572 C.ar    1  ZINC000011157684    0.0500
      9 F9          2.2834    2.5096   50.3477 F       1  ZINC000011157684   -0.1400
     10 C10         0.4150    2.8560   51.7620 C.ar    1  ZINC000011157684   -0.0900
     11 C11        -0.9481    2.7825   51.9765 C.ar    1  ZINC000011157684   -0.0900
     12 Cl12       -1.6199    3.3132   53.4868 Cl      1  ZINC000011157684   -0.0500
     13 N13        -5.3934    3.0262   52.6502 N.am    1  ZINC000011157684   -0.7200
     14 C14        -6.6699    3.0480   53.3687 C.3     1  ZINC000011157684    0.2600
     15 H15        -7.2769    3.8777   53.0062 H       1  ZINC000011157684    0.1200
     16 C16        -6.4134    3.2201   54.8437 C.2     1  ZINC000011157684   -0.1900
     17 C17        -5.3272    3.7835   55.3747 C.2     1  ZINC000011157684   -0.1200
     18 C18        -5.3122    3.8315   56.7581 C.2     1  ZINC000011157684   -0.1300
     19 C19        -6.3861    3.3071   57.3504 C.2     1  ZINC000011157684   -0.2100
     20 S20        -7.5040    2.7155   56.1281 S.3     1  ZINC000011157684    0.1100
     21 C21        -7.4007    1.7511   53.1339 C.ar    1  ZINC000011157684   -0.0900
     22 C22        -6.6902    0.5965   52.8638 C.ar    1  ZINC000011157684   -0.1100
     23 C23        -7.3605   -0.5931   52.6484 C.ar    1  ZINC000011157684   -0.1100
     24 C24        -8.7413   -0.6282   52.7036 C.ar    1  ZINC000011157684   -0.1100
     25 C25        -9.4518    0.5262   52.9746 C.ar    1  ZINC000011157684   -0.1100
     26 C26        -8.7813    1.7150   53.1942 C.ar    1  ZINC000011157684   -0.1000
     27 H27        -4.2295    2.8828   49.5349 H       1  ZINC000011157684    0.1000
     28 H28        -3.6030    4.1561   50.6093 H       1  ZINC000011157684    0.1000
     29 H29        -3.5219    1.4945   51.7682 H       1  ZINC000011157684    0.4200
     30 H30        -1.8842    1.4587   49.0064 H       1  ZINC000011157684    0.1400
     31 H31         0.5438    1.6019   48.6284 H       1  ZINC000011157684    0.1400
     32 H32         1.0623    3.2472   52.5329 H       1  ZINC000011157684    0.1500
     33 H33        -4.5649    2.8949   53.1372 H       1  ZINC000011157684    0.4000
     34 H34        -4.5205    4.1723   54.7711 H       1  ZINC000011157684    0.1400
     35 H35        -4.4927    4.2608   57.3155 H       1  ZINC000011157684    0.1400
     36 H36        -6.5465    3.2569   58.4173 H       1  ZINC000011157684    0.1700
     37 H37        -5.6114    0.6239   52.8207 H       1  ZINC000011157684    0.1200
     38 H38        -6.8054   -1.4950   52.4367 H       1  ZINC000011157684    0.1300
     39 H39        -9.2650   -1.5576   52.5346 H       1  ZINC000011157684    0.1300
     40 H40       -10.5306    0.4988   53.0173 H       1  ZINC000011157684    0.1300
     41 H41        -9.3364    2.6168   53.4059 H       1  ZINC000011157684    0.1300
@<TRIPOS>BOND
     1     1     2    2
     2     2     3    1
     3     2    13   am
     4     3     4    1
     5     3    27    1
     6     3    28    1
     7     4     5    1
     8     4    29    1
     9     5    11   ar
    10     5     6   ar
    11     6     7   ar
    12     6    30    1
    13     7     8   ar
    14     7    31    1
    15     8     9    1
    16     8    10   ar
    17    10    11   ar
    18    10    32    1
    19    11    12    1
    20    13    14    1
    21    13    33    1
    22    14    15    1
    23    14    16    1
    24    14    21    1
    25    16    20    1
    26    16    17    2
    27    17    18    1
    28    17    34    1
    29    18    19    2
    30    18    35    1
    31    19    20    1
    32    19    36    1
    33    21    26   ar
    34    21    22   ar
    35    22    23   ar
    36    22    37    1
    37    23    24   ar
    38    23    38    1
    39    24    25   ar
    40    24    39    1
    41    25    26   ar
    42    25    40    1
    43    26    41    1
@<TRIPOS>SUBSTRUCTURE
     1 ZINC000011157684        1 TEMP              0 ****  ****    0 ROOT


##########                                Name:    ZINC000536173632
##########                DOCK_Rotatable_Bonds:                   7
##########                         Heavy_Atoms:                  29
##########                    Molecular_Weight:             407.389
##########                DOCK_Rotatable_Bonds:                   7
##########                       Formal_Charge:        -2.98023e-07
##########                     HBond_Acceptors:                   8
##########                        HBond_Donors:                   0
##########                         Heavy_Atoms:                  29
##########                          Grid_Score:          -30.476917
##########                     Grid_vdw_energy:          -30.060232
##########                      Grid_es_energy:           -0.416686
##########           Internal_energy_repulsive:           18.140209

@<TRIPOS>MOLECULE
ZINC000536173632
 49 51 1 0 0
SMALL
USER_CHARGES


@<TRIPOS>ATOM
      1 C1        -12.1905   -0.5781   53.7550 C.3     1  ZINC000536173632    0.0400
      2 O2        -11.1463    0.3940   53.4843 O.3     1  ZINC000536173632   -0.3500
      3 C3        -10.2760    0.6499   54.4801 C.2     1  ZINC000536173632    0.5100
      4 O4        -10.3870    0.0775   55.5458 O.2     1  ZINC000536173632   -0.5000
      5 C5         -9.1867    1.6267   54.2762 C.ar    1  ZINC000536173632   -0.1300
      6 C6         -8.3297    1.9512   55.3294 C.ar    1  ZINC000536173632   -0.0600
      7 C7         -7.3145    2.8644   55.1322 C.ar    1  ZINC000536173632   -0.1300
      8 C8         -7.1451    3.4584   53.8943 C.ar    1  ZINC000536173632   -0.0700
      9 C9         -7.9910    3.1414   52.8460 C.ar    1  ZINC000536173632   -0.0800
     10 C10        -7.7986    3.7936   51.5011 C.3     1  ZINC000536173632   -0.1000
     11 C11        -6.3311    4.0479   51.2715 C.2     1  ZINC000536173632    0.5200
     12 O12        -5.8900    5.1744   51.3580 O.2     1  ZINC000536173632   -0.5200
     13 N13        -5.5088    3.0235   50.9699 N.am    1  ZINC000536173632   -0.6200
     14 C14        -6.0209    1.6484   50.8593 C.3     1  ZINC000536173632    0.0700
     15 C15        -5.1385    0.7335   51.7163 C.3     1  ZINC000536173632    0.0500
     16 O16        -3.7685    0.9314   51.3589 O.3     1  ZINC000536173632   -0.3700
     17 C17        -3.2850    2.2544   51.6036 C.3     1  ZINC000536173632    0.1200
     18 H18        -3.4183    2.5018   52.6568 H       1  ZINC000536173632    0.0800
     19 C19        -1.8219    2.3290   51.2502 C.ar    1  ZINC000536173632   -0.0900
     20 C20        -1.3535    1.7033   50.1104 C.ar    1  ZINC000536173632   -0.0600
     21 C21        -0.0113    1.7718   49.7862 C.ar    1  ZINC000536173632   -0.1200
     22 C22         0.8621    2.4664   50.6016 C.ar    1  ZINC000536173632   -0.0700
     23 C23         0.3934    3.0932   51.7413 C.ar    1  ZINC000536173632   -0.1800
     24 C24         1.3457    3.8503   52.6308 C.3     1  ZINC000536173632    0.5100
     25 F25         2.4778    3.0660   52.8761 F       1  ZINC000536173632   -0.1800
     26 F26         1.7292    5.0382   51.9992 F       1  ZINC000536173632   -0.1800
     27 F27         0.7140    4.1494   53.8426 F       1  ZINC000536173632   -0.1800
     28 C28        -0.9492    3.0284   52.0631 C.ar    1  ZINC000536173632   -0.0500
     29 C29        -4.0736    3.2480   50.7354 C.3     1  ZINC000536173632    0.0900
     30 C30        -9.0061    2.2255   53.0277 C.ar    1  ZINC000536173632   -0.0400
     31 H31       -11.7378   -1.5383   54.0023 H       1  ZINC000536173632    0.0600
     32 H32       -12.7972   -0.2357   54.5934 H       1  ZINC000536173632    0.0600
     33 H33       -12.8204   -0.6899   52.8725 H       1  ZINC000536173632    0.1000
     34 H34        -8.4613    1.4887   56.2965 H       1  ZINC000536173632    0.1400
     35 H35        -6.6507    3.1162   55.9461 H       1  ZINC000536173632    0.1400
     36 H36        -6.3491    4.1731   53.7455 H       1  ZINC000536173632    0.1300
     37 H37        -8.1799    3.1355   50.7203 H       1  ZINC000536173632    0.1100
     38 H38        -8.3397    4.7395   51.4754 H       1  ZINC000536173632    0.1100
     39 H39        -7.0489    1.6094   51.2196 H       1  ZINC000536173632    0.1000
     40 H40        -5.9834    1.3252   49.8191 H       1  ZINC000536173632    0.0800
     41 H41        -5.2785    0.9753   52.7699 H       1  ZINC000536173632    0.0600
     42 H42        -5.4139   -0.3064   51.5410 H       1  ZINC000536173632    0.1100
     43 H43        -2.0359    1.1605   49.4732 H       1  ZINC000536173632    0.1400
     44 H44         0.3549    1.2822   48.8959 H       1  ZINC000536173632    0.1400
     45 H45         1.9108    2.5193   50.3488 H       1  ZINC000536173632    0.1400
     46 H46        -1.3154    3.5180   52.9534 H       1  ZINC000536173632    0.1400
     47 H47        -3.8378    3.0842   49.6839 H       1  ZINC000536173632    0.0800
     48 H48        -3.8124    4.2684   51.0159 H       1  ZINC000536173632    0.1100
     49 H49        -9.6654    1.9787   52.2086 H       1  ZINC000536173632    0.1400
@<TRIPOS>BOND
     1     1     2    1
     2     1    31    1
     3     1    32    1
     4     1    33    1
     5     2     3    1
     6     3     4    2
     7     3     5    1
     8     5    30   ar
     9     5     6   ar
    10     6     7   ar
    11     6    34    1
    12     7     8   ar
    13     7    35    1
    14     8     9   ar
    15     8    36    1
    16     9    10    1
    17     9    30   ar
    18    10    11    1
    19    10    37    1
    20    10    38    1
    21    11    12    2
    22    11    13   am
    23    13    29    1
    24    13    14    1
    25    14    15    1
    26    14    39    1
    27    14    40    1
    28    15    16    1
    29    15    41    1
    30    15    42    1
    31    16    17    1
    32    17    18    1
    33    17    19    1
    34    17    29    1
    35    19    28   ar
    36    19    20   ar
    37    20    21   ar
    38    20    43    1
    39    21    22   ar
    40    21    44    1
    41    22    23   ar
    42    22    45    1
    43    23    24    1
    44    23    28   ar
    45    24    25    1
    46    24    26    1
    47    24    27    1
    48    28    46    1
    49    29    47    1
    50    29    48    1
    51    30    49    1
@<TRIPOS>SUBSTRUCTURE
     1 ZINC000536173632        1 TEMP              0 ****  ****    0 ROOT


##########                                Name:    ZINC000492313853
##########                DOCK_Rotatable_Bonds:                   8
##########                         Heavy_Atoms:                  30
##########                    Molecular_Weight:             418.422
##########                DOCK_Rotatable_Bonds:                   8
##########                       Formal_Charge:          -0.0100008
##########                     HBond_Acceptors:                  10
##########                        HBond_Donors:                   2
##########                         Heavy_Atoms:                  30
##########                          Grid_Score:          -30.446783
##########                     Grid_vdw_energy:          -30.538807
##########                      Grid_es_energy:            0.092024
##########           Internal_energy_repulsive:           15.534916

@<TRIPOS>MOLECULE
ZINC000492313853
 51 53 1 0 0
SMALL
USER_CHARGES


@<TRIPOS>ATOM
      1 C1         -9.3905    1.0656   64.4965 C.3     1  ZINC000492313853    0.0900
      2 N2         -8.7631    0.4915   63.3036 N.pl3   1  ZINC000492313853   -0.6200
      3 C3         -7.3113    0.3011   63.2593 C.3     1  ZINC000492313853    0.1000
      4 C4         -9.5455    0.1272   62.2138 C.ar    1  ZINC000492313853    0.4100
      5 C5        -10.9228    0.3155   62.2606 C.ar    1  ZINC000492313853   -0.2400
      6 C6        -11.6893   -0.0509   61.1688 C.ar    1  ZINC000492313853   -0.0100
      7 C7        -11.0501   -0.5954   60.0631 C.ar    1  ZINC000492313853   -0.2300
      8 C8        -11.8449   -1.0085   58.8512 C.3     1  ZINC000492313853    0.2000
      9 N9        -11.7562    0.0375   57.8293 N.am    1  ZINC000492313853   -0.7300
     10 C10       -10.9385   -0.1229   56.7700 C.2     1  ZINC000492313853    0.7100
     11 O11       -10.2754   -1.1363   56.6617 O.2     1  ZINC000492313853   -0.5600
     12 N12       -10.8558    0.8401   55.8306 N.am    1  ZINC000492313853   -0.6600
     13 C13       -10.0081    0.6749   54.7350 C.2     1  ZINC000492313853    0.3300
     14 C14        -8.7806    1.2367   54.5795 C.2     1  ZINC000492313853   -0.2600
     15 C15        -8.2679    0.8133   53.3390 C.2     1  ZINC000492313853    0.1200
     16 C16        -6.9511    1.1892   52.7670 C.ar    1  ZINC000492313853   -0.0100
     17 C17        -6.1344    0.2167   52.1944 C.ar    1  ZINC000492313853   -0.0600
     18 C18        -4.9107    0.5719   51.6633 C.ar    1  ZINC000492313853   -0.1200
     19 C19        -4.4951    1.8904   51.6989 C.ar    1  ZINC000492313853   -0.0700
     20 C20        -5.3022    2.8603   52.2663 C.ar    1  ZINC000492313853   -0.1900
     21 C21        -4.8429    4.2952   52.3010 C.3     1  ZINC000492313853    0.5100
     22 F22        -3.4505    4.3423   52.1730 F       1  ZINC000492313853   -0.1800
     23 F23        -5.4323    4.9992   51.2455 F       1  ZINC000492313853   -0.1800
     24 F24        -5.2192    4.8760   53.5169 F       1  ZINC000492313853   -0.1800
     25 C25        -6.5297    2.5171   52.7954 C.ar    1  ZINC000492313853   -0.0400
     26 N26        -9.1590    0.0263   52.7743 N.2     1  ZINC000492313853   -0.2700
     27 N27       -10.2590   -0.0812   53.6343 N.pl3   1  ZINC000492313853   -0.3900
     28 C28       -11.4722   -0.8643   53.3864 C.3     1  ZINC000492313853    0.1000
     29 C29        -9.6787   -0.7540   60.0849 C.ar    1  ZINC000492313853    0.1700
     30 N30        -8.9721   -0.3908   61.1384 N.ar    1  ZINC000492313853   -0.5400
     31 H31        -9.4347    2.1502   64.3974 H       1  ZINC000492313853    0.0600
     32 H32       -10.4003    0.6691   64.6025 H       1  ZINC000492313853    0.0700
     33 H33        -8.8034    0.8048   65.3771 H       1  ZINC000492313853    0.0700
     34 H34        -6.8713    0.6419   64.1965 H       1  ZINC000492313853    0.0700
     35 H35        -7.0876   -0.7560   63.1162 H       1  ZINC000492313853    0.0600
     36 H36        -6.8945    0.8758   62.4322 H       1  ZINC000492313853    0.0600
     37 H37       -11.3876    0.7417   63.1373 H       1  ZINC000492313853    0.1300
     38 H38       -12.7610    0.0830   61.1765 H       1  ZINC000492313853    0.1400
     39 H39       -11.4427   -1.9402   58.4532 H       1  ZINC000492313853    0.0800
     40 H40       -12.8877   -1.1539   59.1329 H       1  ZINC000492313853    0.0800
     41 H41       -12.2861    0.8455   57.9150 H       1  ZINC000492313853    0.4000
     42 H42       -11.3858    1.6481   55.9164 H       1  ZINC000492313853    0.4100
     43 H43        -8.2868    1.8916   55.2821 H       1  ZINC000492313853    0.1800
     44 H44        -6.4578   -0.8134   52.1664 H       1  ZINC000492313853    0.1400
     45 H45        -4.2766   -0.1813   51.2195 H       1  ZINC000492313853    0.1400
     46 H46        -3.5369    2.1641   51.2826 H       1  ZINC000492313853    0.1400
     47 H47        -7.1590    3.2750   53.2381 H       1  ZINC000492313853    0.1400
     48 H48       -11.3395   -1.8732   53.7769 H       1  ZINC000492313853    0.0800
     49 H49       -12.3184   -0.3905   53.8839 H       1  ZINC000492313853    0.0800
     50 H50       -11.6611   -0.9117   52.3140 H       1  ZINC000492313853    0.1000
     51 H51        -9.1773   -1.1771   59.2269 H       1  ZINC000492313853    0.1600
@<TRIPOS>BOND
     1     1     2    1
     2     1    31    1
     3     1    32    1
     4     1    33    1
     5     2     3    1
     6     2     4    1
     7     3    34    1
     8     3    35    1
     9     3    36    1
    10     4    30   ar
    11     4     5   ar
    12     5     6   ar
    13     5    37    1
    14     6     7   ar
    15     6    38    1
    16     7     8    1
    17     7    29   ar
    18     8     9    1
    19     8    39    1
    20     8    40    1
    21     9    10   am
    22     9    41    1
    23    10    11    2
    24    10    12   am
    25    12    13    1
    26    12    42    1
    27    13    27    1
    28    13    14    2
    29    14    15    1
    30    14    43    1
    31    15    16    1
    32    15    26    2
    33    16    25   ar
    34    16    17   ar
    35    17    18   ar
    36    17    44    1
    37    18    19   ar
    38    18    45    1
    39    19    20   ar
    40    19    46    1
    41    20    21    1
    42    20    25   ar
    43    21    22    1
    44    21    23    1
    45    21    24    1
    46    25    47    1
    47    26    27    1
    48    27    28    1
    49    28    48    1
    50    28    49    1
    51    28    50    1
    52    29    30   ar
    53    29    51    1
@<TRIPOS>SUBSTRUCTURE
     1 ZINC000492313853        1 TEMP              0 ****  ****    0 ROOT


##########                                Name:    ZINC000426805817
##########                DOCK_Rotatable_Bonds:                   6
##########                         Heavy_Atoms:                  26
##########                    Molecular_Weight:             412.286
##########                DOCK_Rotatable_Bonds:                   6
##########                       Formal_Charge:          -0.0100001
##########                     HBond_Acceptors:                   5
##########                        HBond_Donors:                   4
##########                         Heavy_Atoms:                  26
##########                          Grid_Score:          -30.439756
##########                     Grid_vdw_energy:          -29.186331
##########                      Grid_es_energy:           -1.253425
##########           Internal_energy_repulsive:            5.625374

@<TRIPOS>MOLECULE
ZINC000426805817
 44 47 1 0 0
SMALL
USER_CHARGES


@<TRIPOS>ATOM
      1 O1         -3.5126    4.7822   53.9651 O.co2   1  ZINC000426805817   -0.6300
      2 C2         -3.1416    4.9468   52.8154 C.2     1  ZINC000426805817    0.5000
      3 O3         -3.1478    6.0639   52.3269 O.co2   1  ZINC000426805817   -0.6800
      4 C4         -2.6696    3.7706   52.0001 C.3     1  ZINC000426805817   -0.0500
      5 H5         -2.7027    4.0259   50.9409 H       1  ZINC000426805817    0.1300
      6 C6         -1.2339    3.4192   52.3954 C.3     1  ZINC000426805817   -0.0500
      7 C7         -0.5504    2.7286   51.2435 C.2     1  ZINC000426805817   -0.1900
      8 C8         -1.1138    2.3716   50.0786 C.2     1  ZINC000426805817    0.0500
      9 N9         -0.1843    1.7674   49.2766 N.pl3   1  ZINC000426805817   -0.5900
     10 C10         1.0314    1.7195   49.9226 C.ar    1  ZINC000426805817    0.1100
     11 C11         2.2824    1.2248   49.5701 C.ar    1  ZINC000426805817   -0.1200
     12 C12         3.3350    1.3251   50.4530 C.ar    1  ZINC000426805817   -0.0700
     13 C13         3.1617    1.9173   51.6973 C.ar    1  ZINC000426805817   -0.1100
     14 Br14        4.6233    2.0424   52.8907 Br      1  ZINC000426805817   -0.0400
     15 C15         1.9317    2.4143   52.0666 C.ar    1  ZINC000426805817   -0.0400
     16 C16         0.8566    2.3253   51.1802 C.ar    1  ZINC000426805817   -0.1000
     17 N17        -3.5434    2.6172   52.2532 N.4     1  ZINC000426805817   -0.4800
     18 H18        -3.2615    1.8464   51.6662 H       1  ZINC000426805817    0.4000
     19 H19        -3.4704    2.3460   53.2223 H       1  ZINC000426805817    0.4200
     20 C20        -4.9341    2.9805   51.9499 C.3     1  ZINC000426805817    0.0400
     21 C21        -5.8185    1.7730   52.1255 C.ar    1  ZINC000426805817   -0.1600
     22 C22        -7.0446    1.8941   52.7708 C.ar    1  ZINC000426805817    0.1100
     23 N23        -7.7134    2.9519   53.3449 N.pl3   1  ZINC000426805817   -0.5900
     24 C24        -8.9103    2.5252   53.8525 C.2     1  ZINC000426805817    0.0600
     25 C25        -9.0580    1.2094   53.6320 C.2     1  ZINC000426805817   -0.2000
     26 C26        -7.8577    0.7562   52.9254 C.ar    1  ZINC000426805817   -0.1100
     27 C27        -7.4294   -0.4778   52.4328 C.ar    1  ZINC000426805817   -0.0400
     28 C28        -6.2209   -0.5741   51.8021 C.ar    1  ZINC000426805817   -0.1500
     29 C29        -5.4177    0.5464   51.6424 C.ar    1  ZINC000426805817   -0.0700
     30 H30        -0.6922    4.3315   52.6453 H       1  ZINC000426805817    0.1200
     31 H31        -1.2472    2.7561   53.2604 H       1  ZINC000426805817    0.0900
     32 H32        -2.1476    2.5366   49.8137 H       1  ZINC000426805817    0.1700
     33 H33        -0.3559    1.4239   48.3858 H       1  ZINC000426805817    0.4200
     34 H34         2.4283    0.7620   48.6052 H       1  ZINC000426805817    0.1300
     35 H35         4.3045    0.9390   50.1750 H       1  ZINC000426805817    0.1400
     36 H36         1.8003    2.8743   53.0349 H       1  ZINC000426805817    0.1400
     37 H37        -5.2592    3.7705   52.6268 H       1  ZINC000426805817    0.1500
     38 H38        -5.0013    3.3334   50.9208 H       1  ZINC000426805817    0.1300
     39 H39        -7.3847    3.8638   53.3842 H       1  ZINC000426805817    0.4300
     40 H40        -9.6296    3.1541   54.3561 H       1  ZINC000426805817    0.1800
     41 H41        -9.9018    0.6004   53.9211 H       1  ZINC000426805817    0.1500
     42 H42        -8.0508   -1.3533   52.5501 H       1  ZINC000426805817    0.1300
     43 H43        -5.8900   -1.5291   51.4212 H       1  ZINC000426805817    0.1300
     44 H44        -4.4651    0.4544   51.1418 H       1  ZINC000426805817    0.1300
@<TRIPOS>BOND
     1     1     2   ar
     2     2     3   ar
     3     2     4    1
     4     4     5    1
     5     4     6    1
     6     4    17    1
     7     6     7    1
     8     6    30    1
     9     6    31    1
    10     7    16    1
    11     7     8    2
    12     8     9    1
    13     8    32    1
    14     9    10    1
    15     9    33    1
    16    10    16   ar
    17    10    11   ar
    18    11    12   ar
    19    11    34    1
    20    12    13   ar
    21    12    35    1
    22    13    14    1
    23    13    15   ar
    24    15    16   ar
    25    15    36    1
    26    17    18    1
    27    17    19    1
    28    17    20    1
    29    20    21    1
    30    20    37    1
    31    20    38    1
    32    21    29   ar
    33    21    22   ar
    34    22    26   ar
    35    22    23    1
    36    23    24    1
    37    23    39    1
    38    24    25    2
    39    24    40    1
    40    25    26    1
    41    25    41    1
    42    26    27   ar
    43    27    28   ar
    44    27    42    1
    45    28    29   ar
    46    28    43    1
    47    29    44    1
@<TRIPOS>SUBSTRUCTURE
     1 ZINC000426805817        1 TEMP              0 ****  ****    0 ROOT


##########                                Name:    ZINC001067316277
##########                DOCK_Rotatable_Bonds:                   5
##########                         Heavy_Atoms:                  24
##########                    Molecular_Weight:             345.469
##########                DOCK_Rotatable_Bonds:                   5
##########                       Formal_Charge:          -0.0200007
##########                     HBond_Acceptors:                   7
##########                        HBond_Donors:                   2
##########                         Heavy_Atoms:                  24
##########                          Grid_Score:          -30.416121
##########                     Grid_vdw_energy:          -30.017256
##########                      Grid_es_energy:           -0.398865
##########           Internal_energy_repulsive:           14.544319

@<TRIPOS>MOLECULE
ZINC001067316277
 47 49 1 0 0
SMALL
USER_CHARGES


@<TRIPOS>ATOM
      1 C1          1.1454    2.1856   49.5319 C.3     1  ZINC001067316277   -0.1400
      2 S2         -0.5450    1.7512   49.0527 S.3     1  ZINC001067316277   -0.0400
      3 C3         -1.4115    2.2459   50.5049 C.ar    1  ZINC001067316277    0.1800
      4 C4         -0.7167    2.7458   51.6091 C.ar    1  ZINC001067316277   -0.2400
      5 C5         -1.4372    3.1212   52.7258 C.ar    1  ZINC001067316277    0.1900
      6 N6         -2.7565    2.9976   52.7181 N.ar    1  ZINC001067316277   -0.5600
      7 C7         -3.3900    2.5203   51.6566 C.ar    1  ZINC001067316277    0.5100
      8 N8         -4.7690    2.4069   51.6882 N.3     1  ZINC001067316277   -0.4600
      9 C9         -5.1842    1.0029   51.5759 C.3     1  ZINC001067316277    0.0700
     10 C10        -6.7089    0.9275   51.4679 C.3     1  ZINC001067316277   -0.1300
     11 C11        -7.3358    1.5669   52.7100 C.3     1  ZINC001067316277    0.1600
     12 H12        -7.0384    1.0075   53.5970 H       1  ZINC001067316277    0.0900
     13 N13        -8.7955    1.5486   52.5862 N.am    1  ZINC001067316277   -0.7200
     14 C14        -9.4825    0.4262   52.8771 C.2     1  ZINC001067316277    0.5900
     15 O15        -8.8903   -0.5725   53.2413 O.2     1  ZINC001067316277   -0.5300
     16 C16       -10.9441    0.4085   52.7548 C.2     1  ZINC001067316277   -0.0600
     17 C17       -11.7393    1.4530   52.3337 C.2     1  ZINC001067316277   -0.1000
     18 C18       -13.0625    1.0020   52.3688 C.2     1  ZINC001067316277   -0.2100
     19 C19       -13.0526   -0.2816   52.8012 C.2     1  ZINC001067316277    0.0300
     20 N20       -11.7709   -0.6559   53.0340 N.pl3   1  ZINC001067316277   -0.5400
     21 C21        -6.8492    3.0137   52.8305 C.3     1  ZINC001067316277   -0.0700
     22 C22        -7.3137    3.8120   51.6108 C.3     1  ZINC001067316277   -0.1400
     23 C23        -7.4244    3.6418   54.1015 C.3     1  ZINC001067316277   -0.1400
     24 C24        -5.3204    3.0285   52.8989 C.3     1  ZINC001067316277    0.0800
     25 N25        -2.7371    2.1543   50.5641 N.ar    1  ZINC001067316277   -0.5400
     26 H26         1.2012    3.2544   49.7385 H       1  ZINC001067316277    0.0900
     27 H27         1.4245    1.6277   50.4258 H       1  ZINC001067316277    0.0900
     28 H28         1.8288    1.9363   48.7200 H       1  ZINC001067316277    0.1000
     29 H29         0.3594    2.8361   51.5901 H       1  ZINC001067316277    0.1500
     30 H30        -0.9308    3.5111   53.5963 H       1  ZINC001067316277    0.1700
     31 H31        -4.7349    0.5613   50.6863 H       1  ZINC001067316277    0.1000
     32 H32        -4.8551    0.4551   52.4588 H       1  ZINC001067316277    0.0500
     33 H33        -7.0376    1.4635   50.5775 H       1  ZINC001067316277    0.0800
     34 H34        -7.0178   -0.1156   51.4003 H       1  ZINC001067316277    0.0800
     35 H35        -9.2675    2.3444   52.2947 H       1  ZINC001067316277    0.3900
     36 H36       -11.4037    2.4346   52.0336 H       1  ZINC001067316277    0.1500
     37 H37       -13.9371    1.5754   52.0993 H       1  ZINC001067316277    0.1500
     38 H38       -13.9236   -0.9061   52.9350 H       1  ZINC001067316277    0.1700
     39 H39       -11.4846   -1.5271   53.3503 H       1  ZINC001067316277    0.4100
     40 H40        -8.4024    3.7982   51.5605 H       1  ZINC001067316277    0.0500
     41 H41        -6.9670    4.8418   51.6971 H       1  ZINC001067316277    0.0600
     42 H42        -6.9026    3.3649   50.7057 H       1  ZINC001067316277    0.0700
     43 H43        -7.0920    3.0735   54.9702 H       1  ZINC001067316277    0.0600
     44 H44        -7.0776    4.6717   54.1867 H       1  ZINC001067316277    0.0600
     45 H45        -8.5132    3.6279   54.0530 H       1  ZINC001067316277    0.0600
     46 H46        -4.9907    2.4712   53.7757 H       1  ZINC001067316277    0.0600
     47 H47        -4.9701    4.0582   52.9704 H       1  ZINC001067316277    0.1000
@<TRIPOS>BOND
     1     1     2    1
     2     1    26    1
     3     1    27    1
     4     1    28    1
     5     2     3    1
     6     3    25   ar
     7     3     4   ar
     8     4     5   ar
     9     4    29    1
    10     5     6   ar
    11     5    30    1
    12     6     7   ar
    13     7     8    1
    14     7    25   ar
    15     8    24    1
    16     8     9    1
    17     9    10    1
    18     9    31    1
    19     9    32    1
    20    10    11    1
    21    10    33    1
    22    10    34    1
    23    11    12    1
    24    11    13    1
    25    11    21    1
    26    13    14   am
    27    13    35    1
    28    14    15    2
    29    14    16    1
    30    16    20    1
    31    16    17    2
    32    17    18    1
    33    17    36    1
    34    18    19    2
    35    18    37    1
    36    19    20    1
    37    19    38    1
    38    20    39    1
    39    21    22    1
    40    21    23    1
    41    21    24    1
    42    22    40    1
    43    22    41    1
    44    22    42    1
    45    23    43    1
    46    23    44    1
    47    23    45    1
    48    24    46    1
    49    24    47    1
@<TRIPOS>SUBSTRUCTURE
     1 ZINC001067316277        1 TEMP              0 ****  ****    0 ROOT


##########                                Name:    ZINC001492779707
##########                DOCK_Rotatable_Bonds:                   8
##########                         Heavy_Atoms:                  27
##########                    Molecular_Weight:             374.483
##########                DOCK_Rotatable_Bonds:                   8
##########                       Formal_Charge:           0.0199998
##########                     HBond_Acceptors:                   7
##########                        HBond_Donors:                   0
##########                         Heavy_Atoms:                  27
##########                          Grid_Score:          -30.413229
##########                     Grid_vdw_energy:          -30.743185
##########                      Grid_es_energy:            0.329956
##########           Internal_energy_repulsive:           10.631020

@<TRIPOS>MOLECULE
ZINC001492779707
 57 59 1 0 0
SMALL
USER_CHARGES


@<TRIPOS>ATOM
      1 C1         -9.6595    4.1529   52.5155 C.3     1  ZINC001492779707   -0.0700
      2 C2         -8.4230    3.6785   51.7966 C.2     1  ZINC001492779707    0.1800
      3 N3         -8.1642    3.8228   50.5278 N.2     1  ZINC001492779707   -0.2900
      4 N4         -7.0230    3.3012   50.2486 N.2     1  ZINC001492779707   -0.3100
      5 C5         -6.4883    2.7922   51.3334 C.2     1  ZINC001492779707    0.3400
      6 N6         -5.2646    2.1480   51.4243 N.3     1  ZINC001492779707   -0.4600
      7 C7         -5.4278    0.6914   51.3252 C.3     1  ZINC001492779707    0.0300
      8 C8         -4.3316    2.6438   50.4038 C.3     1  ZINC001492779707    0.1100
      9 C9         -2.9431    2.7160   50.9852 C.ar    1  ZINC001492779707   -0.0400
     10 C10        -2.7170    3.4309   52.1467 C.ar    1  ZINC001492779707   -0.1300
     11 C11        -1.4441    3.4990   52.6828 C.ar    1  ZINC001492779707   -0.0800
     12 C12        -0.3952    2.8526   52.0587 C.ar    1  ZINC001492779707   -0.2100
     13 C13        -0.6195    2.1345   50.8928 C.ar    1  ZINC001492779707    0.1300
     14 O14         0.4110    1.4972   50.2770 O.3     1  ZINC001492779707   -0.3100
     15 C15         1.6375    2.2195   50.1503 C.3     1  ZINC001492779707    0.0800
     16 C16         2.6938    1.5949   51.0642 C.3     1  ZINC001492779707   -0.1500
     17 C17         2.1180    2.1580   48.6991 C.3     1  ZINC001492779707   -0.1800
     18 C18        -1.8982    2.0630   50.3602 C.ar    1  ZINC001492779707   -0.1400
     19 N19        -7.3619    3.0220   52.3560 N.pl3   1  ZINC001492779707   -0.4600
     20 C20        -7.2009    2.6368   53.7603 C.3     1  ZINC001492779707    0.1200
     21 C21        -6.4907    3.7596   54.5191 C.3     1  ZINC001492779707   -0.1200
     22 C22        -6.3594    3.3747   55.9940 C.3     1  ZINC001492779707    0.0600
     23 H23        -5.7781    2.4568   56.0806 H       1  ZINC001492779707    0.0800
     24 C24        -5.6546    4.5007   56.7560 C.3     1  ZINC001492779707    0.0300
     25 O25        -5.6355    4.1832   58.1510 O.3     1  ZINC001492779707   -0.3800
     26 C26        -6.9369    3.9811   58.7100 C.3     1  ZINC001492779707    0.0200
     27 C27        -7.6417    2.8551   57.9482 C.3     1  ZINC001492779707    0.0300
     28 O28        -7.6608    3.1712   56.5528 O.3     1  ZINC001492779707   -0.3800
     29 H29        -9.5011    5.1680   52.8798 H       1  ZINC001492779707    0.0900
     30 H30       -10.5060    4.1412   51.8289 H       1  ZINC001492779707    0.1000
     31 H31        -9.8659    3.4926   53.3579 H       1  ZINC001492779707    0.0800
     32 H32        -5.7812    0.4325   50.3271 H       1  ZINC001492779707    0.0500
     33 H33        -4.4698    0.2051   51.5089 H       1  ZINC001492779707    0.0900
     34 H34        -6.1536    0.3559   52.0660 H       1  ZINC001492779707    0.0700
     35 H35        -4.3332    1.9661   49.5501 H       1  ZINC001492779707    0.0700
     36 H36        -4.6419    3.6372   50.0797 H       1  ZINC001492779707    0.0900
     37 H37        -3.5359    3.9372   52.6361 H       1  ZINC001492779707    0.1200
     38 H38        -1.2701    4.0584   53.5901 H       1  ZINC001492779707    0.1300
     39 H39         0.5989    2.9064   52.4775 H       1  ZINC001492779707    0.1300
     40 H40         1.4783    3.2590   50.4367 H       1  ZINC001492779707    0.0700
     41 H41         2.8531    0.5553   50.7779 H       1  ZINC001492779707    0.0700
     42 H42         3.6294    2.1458   50.9676 H       1  ZINC001492779707    0.0800
     43 H43         2.3514    1.6386   52.0981 H       1  ZINC001492779707    0.0700
     44 H44         1.3655    2.6030   48.0480 H       1  ZINC001492779707    0.0600
     45 H45         3.0536    2.7090   48.6025 H       1  ZINC001492779707    0.0700
     46 H46         2.2773    1.1185   48.4127 H       1  ZINC001492779707    0.0700
     47 H47        -2.0753    1.5046   49.4528 H       1  ZINC001492779707    0.1300
     48 H48        -8.1812    2.4619   54.2038 H       1  ZINC001492779707    0.1000
     49 H49        -6.6068    1.7249   53.8210 H       1  ZINC001492779707    0.1000
     50 H50        -5.4989    3.9144   54.0943 H       1  ZINC001492779707    0.0900
     51 H51        -7.0702    4.6789   54.4336 H       1  ZINC001492779707    0.0800
     52 H52        -4.6324    4.6028   56.3916 H       1  ZINC001492779707    0.1100
     53 H53        -6.1922    5.4365   56.6027 H       1  ZINC001492779707    0.0600
     54 H54        -6.8432    3.7069   59.7609 H       1  ZINC001492779707    0.1100
     55 H55        -7.5175    4.8993   58.6225 H       1  ZINC001492779707    0.0600
     56 H56        -7.1041    1.9194   58.1013 H       1  ZINC001492779707    0.0600
     57 H57        -8.6639    2.7530   58.3125 H       1  ZINC001492779707    0.1100
@<TRIPOS>BOND
     1     1     2    1
     2     1    29    1
     3     1    30    1
     4     1    31    1
     5     2    19    1
     6     2     3    2
     7     3     4    1
     8     4     5    2
     9     5     6    1
    10     5    19    1
    11     6     7    1
    12     6     8    1
    13     7    32    1
    14     7    33    1
    15     7    34    1
    16     8     9    1
    17     8    35    1
    18     8    36    1
    19     9    18   ar
    20     9    10   ar
    21    10    11   ar
    22    10    37    1
    23    11    12   ar
    24    11    38    1
    25    12    13   ar
    26    12    39    1
    27    13    14    1
    28    13    18   ar
    29    14    15    1
    30    15    16    1
    31    15    17    1
    32    15    40    1
    33    16    41    1
    34    16    42    1
    35    16    43    1
    36    17    44    1
    37    17    45    1
    38    17    46    1
    39    18    47    1
    40    19    20    1
    41    20    21    1
    42    20    48    1
    43    20    49    1
    44    21    22    1
    45    21    50    1
    46    21    51    1
    47    22    23    1
    48    22    28    1
    49    22    24    1
    50    24    25    1
    51    24    52    1
    52    24    53    1
    53    25    26    1
    54    26    27    1
    55    26    54    1
    56    26    55    1
    57    27    28    1
    58    27    56    1
    59    27    57    1
@<TRIPOS>SUBSTRUCTURE
     1 ZINC001492779707        1 TEMP              0 ****  ****    0 ROOT


##########                                Name:    ZINC001342153661
##########                DOCK_Rotatable_Bonds:                   8
##########                         Heavy_Atoms:                  29
##########                    Molecular_Weight:             395.548
##########                DOCK_Rotatable_Bonds:                   8
##########                       Formal_Charge:          -0.0400005
##########                     HBond_Acceptors:                   6
##########                        HBond_Donors:                   1
##########                         Heavy_Atoms:                  29
##########                          Grid_Score:          -30.409014
##########                     Grid_vdw_energy:          -29.352390
##########                      Grid_es_energy:           -1.056623
##########           Internal_energy_repulsive:           13.604861

@<TRIPOS>MOLECULE
ZINC001342153661
 62 65 1 0 0
SMALL
USER_CHARGES


@<TRIPOS>ATOM
      1 C1         -8.6080    3.9899   52.5191 C.2     1  ZINC001342153661   -0.1400
      2 C2         -9.2189    3.3981   53.5154 C.2     1  ZINC001342153661   -0.1600
      3 C3        -10.5991    3.8438   53.9246 C.3     1  ZINC001342153661   -0.1200
      4 C4         -8.5415    2.2716   54.2524 C.3     1  ZINC001342153661    0.1500
      5 N5         -8.6197    1.0473   53.4518 N.pl3   1  ZINC001342153661   -0.4700
      6 C6         -7.6045    0.4472   52.7596 C.2     1  ZINC001342153661    0.1800
      7 C7         -6.1776    0.9245   52.6744 C.3     1  ZINC001342153661   -0.0600
      8 C8         -5.7516    0.9993   51.2068 C.3     1  ZINC001342153661    0.1600
      9 H9         -5.6662   -0.0089   50.8015 H       1  ZINC001342153661    0.1000
     10 O10        -6.7293    1.7301   50.4637 O.3     1  ZINC001342153661   -0.5400
     11 C11        -4.4192    1.6962   51.1054 C.ar    1  ZINC001342153661   -0.1700
     12 C12        -4.3544    3.0788   51.0284 C.ar    1  ZINC001342153661   -0.0600
     13 C13        -3.1067    3.6769   50.9368 C.ar    1  ZINC001342153661   -0.1700
     14 C14        -1.9775    2.8806   50.9252 C.ar    1  ZINC001342153661    0.1000
     15 N15        -2.0771    1.5676   51.0002 N.ar    1  ZINC001342153661   -0.4800
     16 C16        -3.2462    0.9652   51.0937 C.ar    1  ZINC001342153661    0.1100
     17 N17        -8.0994   -0.6139   52.1882 N.2     1  ZINC001342153661   -0.2700
     18 N18        -9.3484   -0.7244   52.4699 N.2     1  ZINC001342153661   -0.3200
     19 C19        -9.7194    0.2659   53.2468 C.2     1  ZINC001342153661    0.3600
     20 N20       -10.9900    0.4821   53.7561 N.3     1  ZINC001342153661   -0.4500
     21 C21       -11.1989   -0.2829   54.9920 C.3     1  ZINC001342153661    0.0500
     22 C22       -12.5518    0.0904   55.6021 C.3     1  ZINC001342153661   -0.1200
     23 C23       -13.6631   -0.2181   54.5948 C.3     1  ZINC001342153661   -0.1200
     24 C24       -13.3956    0.5536   53.2996 C.3     1  ZINC001342153661   -0.0800
     25 H25       -13.4193    1.6243   53.5023 H       1  ZINC001342153661    0.0800
     26 C26       -14.4694    0.2054   52.2667 C.3     1  ZINC001342153661   -0.0800
     27 C27       -15.8691    0.6305   52.7756 C.3     1  ZINC001342153661   -0.1200
     28 C28       -16.6780    0.7833   51.4635 C.3     1  ZINC001342153661   -0.1300
     29 C29       -15.6722    1.3986   50.4686 C.3     1  ZINC001342153661   -0.1300
     30 C30       -14.2680    1.0312   50.9793 C.3     1  ZINC001342153661   -0.1200
     31 C31       -12.0182    0.1668   52.7562 C.3     1  ZINC001342153661    0.0800
     32 H32        -9.0935    4.7972   51.9909 H       1  ZINC001342153661    0.1000
     33 H33        -7.6171    3.6734   52.2287 H       1  ZINC001342153661    0.1100
     34 H34       -11.3421    3.3360   53.3099 H       1  ZINC001342153661    0.0700
     35 H35       -10.7647    3.5967   54.9732 H       1  ZINC001342153661    0.0600
     36 H36       -10.6887    4.9214   53.7869 H       1  ZINC001342153661    0.0700
     37 H37        -7.4958    2.5270   54.4245 H       1  ZINC001342153661    0.1000
     38 H38        -9.0387    2.1125   55.2092 H       1  ZINC001342153661    0.1000
     39 H39        -6.0974    1.9129   53.1269 H       1  ZINC001342153661    0.1100
     40 H40        -5.5291    0.2280   53.2060 H       1  ZINC001342153661    0.1000
     41 H41        -6.8633    2.6359   50.7746 H       1  ZINC001342153661    0.3800
     42 H42        -5.2543    3.6759   51.0391 H       1  ZINC001342153661    0.1300
     43 H43        -3.0187    4.7515   50.8747 H       1  ZINC001342153661    0.1400
     44 H44        -1.0021    3.3387   50.8538 H       1  ZINC001342153661    0.1600
     45 H45        -3.2881   -0.1124   51.1531 H       1  ZINC001342153661    0.1500
     46 H46       -11.1843   -1.3492   54.7660 H       1  ZINC001342153661    0.0500
     47 H47       -10.4042   -0.0512   55.7012 H       1  ZINC001342153661    0.0700
     48 H48       -12.7134   -0.4891   56.5111 H       1  ZINC001342153661    0.0800
     49 H49       -12.5622    1.1539   55.8411 H       1  ZINC001342153661    0.0700
     50 H50       -13.6781   -1.2876   54.3852 H       1  ZINC001342153661    0.0600
     51 H51       -14.6244    0.0866   55.0084 H       1  ZINC001342153661    0.0700
     52 H52       -14.4503   -0.8611   52.0427 H       1  ZINC001342153661    0.0800
     53 H53       -16.3020   -0.1446   53.4081 H       1  ZINC001342153661    0.0700
     54 H54       -15.8146    1.5798   53.3084 H       1  ZINC001342153661    0.0700
     55 H55       -17.0180   -0.1900   51.1094 H       1  ZINC001342153661    0.0600
     56 H56       -17.5248    1.4529   51.6131 H       1  ZINC001342153661    0.0600
     57 H57       -15.8286    0.9816   49.4737 H       1  ZINC001342153661    0.0600
     58 H58       -15.7884    2.4821   50.4424 H       1  ZINC001342153661    0.0600
     59 H59       -13.7026    1.9364   51.2009 H       1  ZINC001342153661    0.0600
     60 H60       -13.7429    0.4360   50.2323 H       1  ZINC001342153661    0.0600
     61 H61       -11.8188    0.7251   51.8416 H       1  ZINC001342153661    0.0900
     62 H62       -11.9998   -0.9016   52.5407 H       1  ZINC001342153661    0.0500
@<TRIPOS>BOND
     1     1     2    2
     2     1    32    1
     3     1    33    1
     4     2     3    1
     5     2     4    1
     6     3    34    1
     7     3    35    1
     8     3    36    1
     9     4     5    1
    10     4    37    1
    11     4    38    1
    12     5    19    1
    13     5     6    1
    14     6     7    1
    15     6    17    2
    16     7     8    1
    17     7    39    1
    18     7    40    1
    19     8     9    1
    20     8    10    1
    21     8    11    1
    22    10    41    1
    23    11    16   ar
    24    11    12   ar
    25    12    13   ar
    26    12    42    1
    27    13    14   ar
    28    13    43    1
    29    14    15   ar
    30    14    44    1
    31    15    16   ar
    32    16    45    1
    33    17    18    1
    34    18    19    2
    35    19    20    1
    36    20    31    1
    37    20    21    1
    38    21    22    1
    39    21    46    1
    40    21    47    1
    41    22    23    1
    42    22    48    1
    43    22    49    1
    44    23    24    1
    45    23    50    1
    46    23    51    1
    47    24    25    1
    48    24    26    1
    49    24    31    1
    50    26    30    1
    51    26    27    1
    52    26    52    1
    53    27    28    1
    54    27    53    1
    55    27    54    1
    56    28    29    1
    57    28    55    1
    58    28    56    1
    59    29    30    1
    60    29    57    1
    61    29    58    1
    62    30    59    1
    63    30    60    1
    64    31    61    1
    65    31    62    1
@<TRIPOS>SUBSTRUCTURE
     1 ZINC001342153661        1 TEMP              0 ****  ****    0 ROOT


##########                                Name:    ZINC000482910431
##########                DOCK_Rotatable_Bonds:                   7
##########                         Heavy_Atoms:                  29
##########                    Molecular_Weight:             414.867
##########                DOCK_Rotatable_Bonds:                   7
##########                       Formal_Charge:          -0.0300001
##########                     HBond_Acceptors:                   8
##########                        HBond_Donors:                   2
##########                         Heavy_Atoms:                  29
##########                          Grid_Score:          -30.407745
##########                     Grid_vdw_energy:          -28.258331
##########                      Grid_es_energy:           -2.149413
##########           Internal_energy_repulsive:           14.463742

@<TRIPOS>MOLECULE
ZINC000482910431
 49 51 1 0 0
SMALL
USER_CHARGES


@<TRIPOS>ATOM
      1 C1        -13.8584   -0.0274   52.7280 C.3     1  ZINC000482910431   -0.1500
      2 C2        -13.3069    0.9308   53.7856 C.3     1  ZINC000482910431    0.0800
      3 C3        -13.8229    2.3449   53.5112 C.3     1  ZINC000482910431   -0.1400
      4 C4        -13.7509    0.4969   55.1202 C.1     1  ZINC000482910431    0.2100
      5 N5        -14.0935    0.1619   56.1502 N.1     1  ZINC000482910431   -0.4300
      6 C6        -11.8010    0.9264   53.7311 C.ar    1  ZINC000482910431   -0.1000
      7 C7        -11.0794    1.8012   54.5224 C.ar    1  ZINC000482910431   -0.0900
      8 C8         -9.6990    1.7993   54.4752 C.ar    1  ZINC000482910431   -0.1200
      9 C9         -9.0358    0.9176   53.6320 C.ar    1  ZINC000482910431    0.1700
     10 N10        -7.6372    0.9128   53.5822 N.am    1  ZINC000482910431   -0.6800
     11 C11        -6.9946    1.6145   52.6278 C.2     1  ZINC000482910431    0.7100
     12 O12        -7.6299    2.2517   51.8100 O.2     1  ZINC000482910431   -0.5500
     13 N13        -5.6477    1.6099   52.5798 N.am    1  ZINC000482910431   -0.7300
     14 C14        -4.9491    2.3713   51.5412 C.3     1  ZINC000482910431    0.1400
     15 H15        -5.5065    2.3381   50.6051 H       1  ZINC000482910431    0.1400
     16 C16        -4.7371    3.8347   51.9933 C.3     1  ZINC000482910431   -0.1400
     17 C17        -3.3469    4.1500   51.3981 C.3     1  ZINC000482910431    0.0900
     18 N18        -2.6709    2.8533   51.2740 N.am    1  ZINC000482910431   -0.5600
     19 C19        -1.2906    2.6954   51.1034 C.ar    1  ZINC000482910431    0.2000
     20 C20        -0.4270    2.9369   52.1635 C.ar    1  ZINC000482910431   -0.1600
     21 C21         0.9351    2.7806   51.9939 C.ar    1  ZINC000482910431   -0.0500
     22 C22         1.4402    2.3838   50.7690 C.ar    1  ZINC000482910431   -0.1000
     23 Cl23        3.1525    2.1885   50.5596 Cl      1  ZINC000482910431   -0.0500
     24 C24         0.5811    2.1412   49.7085 C.ar    1  ZINC000482910431    0.1400
     25 F25         1.0765    1.7531   48.5130 F       1  ZINC000482910431   -0.1200
     26 C26        -0.7836    2.2913   49.8755 C.ar    1  ZINC000482910431   -0.1900
     27 C27        -3.5487    1.8345   51.3429 C.2     1  ZINC000482910431    0.5000
     28 O28        -3.2575    0.6599   51.2616 O.2     1  ZINC000482910431   -0.4800
     29 C29        -9.7633    0.0403   52.8386 C.ar    1  ZINC000482910431   -0.1400
     30 C30       -11.1433    0.0435   52.8943 C.ar    1  ZINC000482910431   -0.0900
     31 H31       -13.5296    0.2940   51.7397 H       1  ZINC000482910431    0.0800
     32 H32       -13.4907   -1.0348   52.9234 H       1  ZINC000482910431    0.0700
     33 H33       -14.9477   -0.0241   52.7674 H       1  ZINC000482910431    0.0700
     34 H34       -14.9123    2.3481   53.5506 H       1  ZINC000482910431    0.0700
     35 H35       -13.4301    3.0276   54.2646 H       1  ZINC000482910431    0.0700
     36 H36       -13.4942    2.6663   52.5229 H       1  ZINC000482910431    0.0800
     37 H37       -11.5957    2.4870   55.1778 H       1  ZINC000482910431    0.1400
     38 H38        -9.1361    2.4831   55.0932 H       1  ZINC000482910431    0.1400
     39 H39        -7.1305    0.4044   54.2346 H       1  ZINC000482910431    0.4100
     40 H40        -5.1409    1.1026   53.2328 H       1  ZINC000482910431    0.4000
     41 H41        -5.5000    4.4881   51.5700 H       1  ZINC000482910431    0.1100
     42 H42        -4.7218    3.9088   53.0807 H       1  ZINC000482910431    0.1000
     43 H43        -3.4528    4.6154   50.4182 H       1  ZINC000482910431    0.0900
     44 H44        -2.7889    4.8036   52.0686 H       1  ZINC000482910431    0.1000
     45 H45        -0.8200    3.2472   53.1204 H       1  ZINC000482910431    0.1700
     46 H46         1.6065    2.9691   52.8187 H       1  ZINC000482910431    0.1500
     47 H47        -1.4534    2.1021   49.0498 H       1  ZINC000482910431    0.1500
     48 H48        -9.2504   -0.6467   52.1818 H       1  ZINC000482910431    0.1300
     49 H49       -11.7097   -0.6389   52.2778 H       1  ZINC000482910431    0.1300
@<TRIPOS>BOND
     1     1     2    1
     2     1    31    1
     3     1    32    1
     4     1    33    1
     5     2     3    1
     6     2     4    1
     7     2     6    1
     8     3    34    1
     9     3    35    1
    10     3    36    1
    11     4     5    3
    12     6    30   ar
    13     6     7   ar
    14     7     8   ar
    15     7    37    1
    16     8     9   ar
    17     8    38    1
    18     9    10    1
    19     9    29   ar
    20    10    11   am
    21    10    39    1
    22    11    12    2
    23    11    13   am
    24    13    14    1
    25    13    40    1
    26    14    15    1
    27    14    27    1
    28    14    16    1
    29    16    17    1
    30    16    41    1
    31    16    42    1
    32    17    18    1
    33    17    43    1
    34    17    44    1
    35    18    19    1
    36    18    27   am
    37    19    26   ar
    38    19    20   ar
    39    20    21   ar
    40    20    45    1
    41    21    22   ar
    42    21    46    1
    43    22    23    1
    44    22    24   ar
    45    24    25    1
    46    24    26   ar
    47    26    47    1
    48    27    28    2
    49    29    30   ar
    50    29    48    1
    51    30    49    1
@<TRIPOS>SUBSTRUCTURE
     1 ZINC000482910431        1 TEMP              0 ****  ****    0 ROOT


##########                                Name:    ZINC000753658424
##########                DOCK_Rotatable_Bonds:                   8
##########                         Heavy_Atoms:                  24
##########                    Molecular_Weight:             332.399
##########                DOCK_Rotatable_Bonds:                   8
##########                       Formal_Charge:        -9.16421e-07
##########                     HBond_Acceptors:                   6
##########                        HBond_Donors:                   3
##########                         Heavy_Atoms:                  24
##########                          Grid_Score:          -30.395792
##########                     Grid_vdw_energy:          -29.426016
##########                      Grid_es_energy:           -0.969776
##########           Internal_energy_repulsive:           18.983505

@<TRIPOS>MOLECULE
ZINC000753658424
 48 49 1 0 0
SMALL
USER_CHARGES


@<TRIPOS>ATOM
      1 C1         -9.0161    2.3195   55.8270 C.3     1  ZINC000753658424   -0.2000
      2 C2         -9.4035    2.1415   54.3815 C.2     1  ZINC000753658424    0.4400
      3 O3        -10.5078    2.4732   54.0042 O.2     1  ZINC000753658424   -0.4500
      4 C4         -8.4459    1.5675   53.4312 C.2     1  ZINC000753658424   -0.2500
      5 C5         -8.4694    0.2828   52.9108 C.2     1  ZINC000753658424    0.1000
      6 C6         -9.4927   -0.7778   53.2257 C.3     1  ZINC000753658424   -0.1000
      7 N7         -7.4265    0.1451   52.0791 N.pl3   1  ZINC000753658424   -0.5300
      8 C8         -6.7134    1.3241   52.0433 C.2     1  ZINC000753658424   -0.0600
      9 C9         -5.5035    1.5724   51.2490 C.2     1  ZINC000753658424    0.5900
     10 O10        -5.5900    2.1081   50.1600 O.2     1  ZINC000753658424   -0.5200
     11 N11        -4.2972    1.2070   51.7264 N.am    1  ZINC000753658424   -0.7300
     12 C12        -3.0903    1.4532   50.9333 C.3     1  ZINC000753658424    0.0900
     13 C13        -2.3193    2.6320   51.5307 C.3     1  ZINC000753658424    0.1900
     14 H14        -2.4029    2.6078   52.6171 H       1  ZINC000753658424    0.1300
     15 O15        -2.8658    3.8572   51.0381 O.3     1  ZINC000753658424   -0.5500
     16 C16        -0.8681    2.5348   51.1361 C.2     1  ZINC000753658424   -0.0600
     17 C17         0.1795    2.9054   51.8941 C.2     1  ZINC000753658424   -0.1800
     18 C18         1.3452    2.6419   51.1385 C.2     1  ZINC000753658424   -0.2100
     19 C19         0.9401    2.1260   49.9642 C.2     1  ZINC000753658424    0.0000
     20 C20         1.8391    1.6912   48.8356 C.3     1  ZINC000753658424   -0.0800
     21 O21        -0.4012    2.0581   49.9706 O.3     1  ZINC000753658424   -0.1700
     22 C22        -7.3251    2.2218   52.8655 C.2     1  ZINC000753658424   -0.0100
     23 C23        -6.8867    3.6391   53.1301 C.3     1  ZINC000753658424   -0.0500
     24 C24        -5.4172    3.6472   53.5563 C.3     1  ZINC000753658424   -0.1500
     25 C25        -7.0530    4.4706   51.8567 C.3     1  ZINC000753658424   -0.1500
     26 H26        -9.8198    2.8290   56.3584 H       1  ZINC000753658424    0.0800
     27 H27        -8.8431    1.3432   56.2796 H       1  ZINC000753658424    0.1000
     28 H28        -8.1053    2.9149   55.8883 H       1  ZINC000753658424    0.0900
     29 H29       -10.2764   -0.7628   52.4685 H       1  ZINC000753658424    0.0900
     30 H30        -9.0118   -1.7561   53.2318 H       1  ZINC000753658424    0.0800
     31 H31        -9.9296   -0.5818   54.2049 H       1  ZINC000753658424    0.0900
     32 H32        -7.2083   -0.6581   51.5808 H       1  ZINC000753658424    0.4200
     33 H33        -4.2282    0.7809   52.5951 H       1  ZINC000753658424    0.4000
     34 H34        -2.4603    0.5638   50.9448 H       1  ZINC000753658424    0.0900
     35 H35        -3.3715    1.6860   49.9063 H       1  ZINC000753658424    0.0800
     36 H36        -2.7422    3.9892   50.0882 H       1  ZINC000753658424    0.3900
     37 H37         0.1382    3.3244   52.8886 H       1  ZINC000753658424    0.1500
     38 H38         2.3651    2.8207   51.4454 H       1  ZINC000753658424    0.1500
     39 H39         2.1005    0.6407   48.9634 H       1  ZINC000753658424    0.0800
     40 H40         1.3203    1.8235   47.8862 H       1  ZINC000753658424    0.0800
     41 H41         2.7467    2.2947   48.8409 H       1  ZINC000753658424    0.0900
     42 H42        -7.4979    4.0660   53.9253 H       1  ZINC000753658424    0.1100
     43 H43        -4.7944    3.3331   52.7187 H       1  ZINC000753658424    0.0500
     44 H44        -5.1334    4.6539   53.8628 H       1  ZINC000753658424    0.0600
     45 H45        -5.2772    2.9602   54.3909 H       1  ZINC000753658424    0.0600
     46 H46        -8.1100    4.5309   51.5976 H       1  ZINC000753658424    0.0500
     47 H47        -6.6623    5.4742   52.0245 H       1  ZINC000753658424    0.0600
     48 H48        -6.5053    3.9991   51.0408 H       1  ZINC000753658424    0.0600
@<TRIPOS>BOND
     1     1     2    1
     2     1    26    1
     3     1    27    1
     4     1    28    1
     5     2     3    2
     6     2     4    1
     7     4    22    1
     8     4     5    2
     9     5     6    1
    10     5     7    1
    11     6    29    1
    12     6    30    1
    13     6    31    1
    14     7     8    1
    15     7    32    1
    16     8     9    1
    17     8    22    2
    18     9    10    2
    19     9    11   am
    20    11    12    1
    21    11    33    1
    22    12    13    1
    23    12    34    1
    24    12    35    1
    25    13    14    1
    26    13    15    1
    27    13    16    1
    28    15    36    1
    29    16    21    1
    30    16    17    2
    31    17    18    1
    32    17    37    1
    33    18    19    2
    34    18    38    1
    35    19    20    1
    36    19    21    1
    37    20    39    1
    38    20    40    1
    39    20    41    1
    40    22    23    1
    41    23    24    1
    42    23    25    1
    43    23    42    1
    44    24    43    1
    45    24    44    1
    46    24    45    1
    47    25    46    1
    48    25    47    1
    49    25    48    1
@<TRIPOS>SUBSTRUCTURE
     1 ZINC000753658424        1 TEMP              0 ****  ****    0 ROOT


##########                                Name:    ZINC000530457945
##########                DOCK_Rotatable_Bonds:                   4
##########                         Heavy_Atoms:                  25
##########                    Molecular_Weight:             355.827
##########                DOCK_Rotatable_Bonds:                   4
##########                       Formal_Charge:           0.0199997
##########                     HBond_Acceptors:                   7
##########                        HBond_Donors:                   1
##########                         Heavy_Atoms:                  25
##########                          Grid_Score:          -30.392126
##########                     Grid_vdw_energy:          -29.531113
##########                      Grid_es_energy:           -0.861014
##########           Internal_energy_repulsive:           30.385340

@<TRIPOS>MOLECULE
ZINC000530457945
 43 46 1 0 0
SMALL
USER_CHARGES


@<TRIPOS>ATOM
      1 C1         -7.3467    3.5446   52.5484 C.3     1  ZINC000530457945   -0.1700
      2 C2         -6.5569    2.2537   52.7733 C.3     1  ZINC000530457945    0.0900
      3 H3         -5.6224    2.4758   53.2885 H       1  ZINC000530457945    0.1100
      4 C4         -6.2614    1.5762   51.4185 C.3     1  ZINC000530457945   -0.1200
      5 H5         -6.9821    1.8922   50.6643 H       1  ZINC000530457945    0.1100
      6 C6         -4.8551    1.8771   50.9680 C.2     1  ZINC000530457945    0.5300
      7 O7         -4.6606    2.3766   49.8802 O.2     1  ZINC000530457945   -0.4700
      8 N8         -3.8136    1.5911   51.7743 N.am    1  ZINC000530457945   -0.6200
      9 C9         -2.5102    1.8684   51.3561 C.2     1  ZINC000530457945    0.4800
     10 N10        -1.9428    1.3910   50.2670 N.2     1  ZINC000530457945   -0.3000
     11 N11        -0.6416    1.9111   50.2188 N.pl3   1  ZINC000530457945   -0.2800
     12 C12         0.3837    1.7663   49.3385 C.2     1  ZINC000530457945    0.1400
     13 C13         1.5614    2.4007   49.5433 C.2     1  ZINC000530457945   -0.0800
     14 Cl14        2.8597    2.2036   48.4080 Cl      1  ZINC000530457945   -0.0200
     15 C15         1.7356    3.2178   50.6707 C.2     1  ZINC000530457945   -0.0500
     16 C16         0.7124    3.3683   51.5572 C.2     1  ZINC000530457945   -0.0900
     17 C17        -0.5027    2.6996   51.3254 C.2     1  ZINC000530457945    0.3000
     18 N18        -1.6520    2.6592   51.9925 N.2     1  ZINC000530457945   -0.5500
     19 C19        -6.4280    0.0674   51.7384 C.3     1  ZINC000530457945   -0.1200
     20 C20        -7.5917    0.0909   52.7607 C.3     1  ZINC000530457945    0.0400
     21 N21        -7.3579    1.3084   53.5725 N.3     1  ZINC000530457945   -0.4900
     22 C22        -8.5667    1.8862   53.9676 C.ar    1  ZINC000530457945    0.1000
     23 C23        -8.7230    2.3542   55.2661 C.ar    1  ZINC000530457945   -0.1600
     24 C24        -9.9193    2.9254   55.6532 C.ar    1  ZINC000530457945   -0.1100
     25 C25       -10.9611    3.0312   54.7500 C.ar    1  ZINC000530457945   -0.1300
     26 C26       -10.8089    2.5662   53.4566 C.ar    1  ZINC000530457945   -0.1100
     27 C27        -9.6133    1.9993   53.0612 C.ar    1  ZINC000530457945   -0.1000
     28 H28        -7.6588    3.9517   53.5101 H       1  ZINC000530457945    0.0700
     29 H29        -6.7173    4.2706   52.0336 H       1  ZINC000530457945    0.0600
     30 H30        -8.2265    3.3312   51.9413 H       1  ZINC000530457945    0.0600
     31 H31        -3.9692    1.1927   52.6449 H       1  ZINC000530457945    0.4300
     32 H32         0.2577    1.1392   48.4683 H       1  ZINC000530457945    0.1800
     33 H33         2.6754    3.7240   50.8347 H       1  ZINC000530457945    0.1600
     34 H34         0.8334    3.9939   52.4291 H       1  ZINC000530457945    0.1700
     35 H35        -6.7042   -0.4930   50.8453 H       1  ZINC000530457945    0.0900
     36 H36        -5.5218   -0.3388   52.1877 H       1  ZINC000530457945    0.0900
     37 H37        -8.5493    0.1558   52.2441 H       1  ZINC000530457945    0.0700
     38 H38        -7.5597   -0.7966   53.3925 H       1  ZINC000530457945    0.0900
     39 H39        -7.9101    2.2713   55.9722 H       1  ZINC000530457945    0.1200
     40 H40       -10.0415    3.2895   56.6626 H       1  ZINC000530457945    0.1200
     41 H41       -11.8959    3.4776   55.0555 H       1  ZINC000530457945    0.1200
     42 H42       -11.6245    2.6503   52.7536 H       1  ZINC000530457945    0.1300
     43 H43        -9.4949    1.6365   52.0509 H       1  ZINC000530457945    0.1300
@<TRIPOS>BOND
     1     1     2    1
     2     1    28    1
     3     1    29    1
     4     1    30    1
     5     2     3    1
     6     2    21    1
     7     2     4    1
     8     4     5    1
     9     4     6    1
    10     4    19    1
    11     6     7    2
    12     6     8   am
    13     8     9    1
    14     8    31    1
    15     9    18    1
    16     9    10    2
    17    10    11    1
    18    11    17    1
    19    11    12    1
    20    12    13    2
    21    12    32    1
    22    13    14    1
    23    13    15    1
    24    15    16    2
    25    15    33    1
    26    16    17    1
    27    16    34    1
    28    17    18    2
    29    19    20    1
    30    19    35    1
    31    19    36    1
    32    20    21    1
    33    20    37    1
    34    20    38    1
    35    21    22    1
    36    22    27   ar
    37    22    23   ar
    38    23    24   ar
    39    23    39    1
    40    24    25   ar
    41    24    40    1
    42    25    26   ar
    43    25    41    1
    44    26    27   ar
    45    26    42    1
    46    27    43    1
@<TRIPOS>SUBSTRUCTURE
     1 ZINC000530457945        1 TEMP              0 ****  ****    0 ROOT


##########                                Name:    ZINC000846412382
##########                DOCK_Rotatable_Bonds:                   6
##########                         Heavy_Atoms:                  26
##########                    Molecular_Weight:             370.475
##########                DOCK_Rotatable_Bonds:                   6
##########                       Formal_Charge:               -0.03
##########                     HBond_Acceptors:                   7
##########                        HBond_Donors:                   4
##########                         Heavy_Atoms:                  26
##########                          Grid_Score:          -30.382872
##########                     Grid_vdw_energy:          -28.172260
##########                      Grid_es_energy:           -2.210612
##########           Internal_energy_repulsive:           18.845930

@<TRIPOS>MOLECULE
ZINC000846412382
 48 50 1 0 0
SMALL
USER_CHARGES


@<TRIPOS>ATOM
      1 C1         -2.6620    3.6252   53.1483 C.3     1  ZINC000846412382   -0.1400
      2 C2         -2.0578    2.9132   51.9655 C.2     1  ZINC000846412382    0.0300
      3 C3         -2.8088    2.3293   51.0232 C.2     1  ZINC000846412382   -0.2700
      4 C4         -4.2767    2.3075   51.0199 C.2     1  ZINC000846412382    0.6000
      5 O5         -4.8925    2.9245   50.1711 O.2     1  ZINC000846412382   -0.5200
      6 N6         -4.9422    1.6039   51.9572 N.am    1  ZINC000846412382   -0.7100
      7 C7         -6.4071    1.5835   51.9550 C.3     1  ZINC000846412382    0.1200
      8 H8         -6.7753    2.0239   51.0283 H       1  ZINC000846412382    0.1000
      9 C9         -6.8972    0.1380   52.0626 C.3     1  ZINC000846412382   -0.1700
     10 C10        -6.9302    2.3893   53.1457 C.3     1  ZINC000846412382    0.1700
     11 C11        -6.5997    3.8696   52.9443 C.3     1  ZINC000846412382   -0.1400
     12 O12        -6.3112    1.9221   54.3460 O.3     1  ZINC000846412382   -0.5500
     13 C13        -8.4237    2.2179   53.2511 C.ar    1  ZINC000846412382   -0.1200
     14 C14        -9.2428    2.6457   52.2229 C.ar    1  ZINC000846412382   -0.1100
     15 C15       -10.6128    2.4886   52.3196 C.ar    1  ZINC000846412382   -0.1200
     16 C16       -11.1636    1.9030   53.4441 C.ar    1  ZINC000846412382   -0.1200
     17 C17       -10.3444    1.4744   54.4719 C.ar    1  ZINC000846412382   -0.1200
     18 C18        -8.9742    1.6277   54.3733 C.ar    1  ZINC000846412382   -0.1000
     19 S19        -1.7963    1.5939   49.7921 S.3     1  ZINC000846412382    0.2000
     20 C20        -0.3322    2.1149   50.6149 C.ar    1  ZINC000846412382    0.1400
     21 N21         0.9595    1.9476   50.3098 N.ar    1  ZINC000846412382   -0.5300
     22 C22         1.9065    2.4305   51.0813 C.ar    1  ZINC000846412382    0.3900
     23 C23         3.3456    2.2135   50.6903 C.3     1  ZINC000846412382   -0.0900
     24 N24         1.6397    3.1001   52.1878 N.ar    1  ZINC000846412382   -0.5800
     25 C25         0.3925    3.3187   52.5758 C.ar    1  ZINC000846412382    0.5100
     26 N26         0.1318    4.0207   53.7352 N.pl3   1  ZINC000846412382   -0.8300
     27 C27        -0.6751    2.8228   51.7753 C.ar    1  ZINC000846412382   -0.2500
     28 H28        -2.7353    4.6910   52.9320 H       1  ZINC000846412382    0.0800
     29 H29        -3.6567    3.2249   53.3442 H       1  ZINC000846412382    0.1100
     30 H30        -2.0308    3.4747   54.0242 H       1  ZINC000846412382    0.0700
     31 H31        -4.4514    1.1109   52.6332 H       1  ZINC000846412382    0.4000
     32 H32        -6.5291   -0.3023   52.9893 H       1  ZINC000846412382    0.0600
     33 H33        -7.9871    0.1229   52.0609 H       1  ZINC000846412382    0.0800
     34 H34        -6.5245   -0.4360   51.2143 H       1  ZINC000846412382    0.0700
     35 H35        -7.0719    4.2261   52.0288 H       1  ZINC000846412382    0.0700
     36 H36        -6.9723    4.4437   53.7926 H       1  ZINC000846412382    0.0700
     37 H37        -5.5195    3.9936   52.8681 H       1  ZINC000846412382    0.0700
     38 H38        -5.3621    1.7573   54.2605 H       1  ZINC000846412382    0.3800
     39 H39        -8.8123    3.1032   51.3444 H       1  ZINC000846412382    0.1300
     40 H40       -11.2527    2.8235   51.5167 H       1  ZINC000846412382    0.1200
     41 H41       -12.2340    1.7809   53.5199 H       1  ZINC000846412382    0.1200
     42 H42       -10.7749    1.0173   55.3506 H       1  ZINC000846412382    0.1200
     43 H43        -8.3342    1.2928   55.1763 H       1  ZINC000846412382    0.1300
     44 H44         3.6799    3.0392   50.0620 H       1  ZINC000846412382    0.0900
     45 H45         3.9627    2.1668   51.5876 H       1  ZINC000846412382    0.0900
     46 H46         3.4352    1.2778   50.1387 H       1  ZINC000846412382    0.0900
     47 H47         0.8085    4.0820   54.4275 H       1  ZINC000846412382    0.4100
     48 H48        -0.7279    4.4527   53.8576 H       1  ZINC000846412382    0.4200
@<TRIPOS>BOND
     1     1     2    1
     2     1    28    1
     3     1    29    1
     4     1    30    1
     5     2    27    1
     6     2     3    2
     7     3     4    1
     8     3    19    1
     9     4     5    2
    10     4     6   am
    11     6     7    1
    12     6    31    1
    13     7     8    1
    14     7     9    1
    15     7    10    1
    16     9    32    1
    17     9    33    1
    18     9    34    1
    19    10    11    1
    20    10    12    1
    21    10    13    1
    22    11    35    1
    23    11    36    1
    24    11    37    1
    25    12    38    1
    26    13    18   ar
    27    13    14   ar
    28    14    15   ar
    29    14    39    1
    30    15    16   ar
    31    15    40    1
    32    16    17   ar
    33    16    41    1
    34    17    18   ar
    35    17    42    1
    36    18    43    1
    37    19    20    1
    38    20    27   ar
    39    20    21   ar
    40    21    22   ar
    41    22    23    1
    42    22    24   ar
    43    23    44    1
    44    23    45    1
    45    23    46    1
    46    24    25   ar
    47    25    26    1
    48    25    27   ar
    49    26    47    1
    50    26    48    1
@<TRIPOS>SUBSTRUCTURE
     1 ZINC000846412382        1 TEMP              0 ****  ****    0 ROOT


##########                                Name:    ZINC000435292384
##########                DOCK_Rotatable_Bonds:                   6
##########                         Heavy_Atoms:                  22
##########                    Molecular_Weight:             326.503
##########                DOCK_Rotatable_Bonds:                   6
##########                       Formal_Charge:         -0.00999993
##########                     HBond_Acceptors:                   5
##########                        HBond_Donors:                   0
##########                         Heavy_Atoms:                  22
##########                          Grid_Score:          -30.366800
##########                     Grid_vdw_energy:          -29.222971
##########                      Grid_es_energy:           -1.143830
##########           Internal_energy_repulsive:           28.498363

@<TRIPOS>MOLECULE
ZINC000435292384
 52 53 1 0 0
SMALL
USER_CHARGES


@<TRIPOS>ATOM
      1 C1          6.1692   -0.7083   51.9576 C.3     1  ZINC000435292384   -0.1500
      2 C2          5.6052    0.7044   52.1214 C.3     1  ZINC000435292384   -0.1200
      3 C3          4.2539    0.7998   51.4103 C.3     1  ZINC000435292384   -0.1400
      4 C4          3.6905    2.2130   51.5730 C.3     1  ZINC000435292384    0.1600
      5 H5          4.4162    2.9380   51.2044 H       1  ZINC000435292384    0.0900
      6 C6          3.4073    2.4819   53.0523 C.3     1  ZINC000435292384   -0.1700
      7 N7          2.4471    2.3342   50.8078 N.am    1  ZINC000435292384   -0.6100
      8 C8          1.1051    2.3263   51.4019 C.3     1  ZINC000435292384    0.1200
      9 C9          0.1706    2.9052   50.3166 C.3     1  ZINC000435292384   -0.1300
     10 H10         0.0532    3.9821   50.4369 H       1  ZINC000435292384    0.1100
     11 C11        -1.1686    2.2142   50.3336 C.2     1  ZINC000435292384    0.5200
     12 O12        -1.5001    1.5113   49.4025 O.2     1  ZINC000435292384   -0.5200
     13 N13        -1.9978    2.3775   51.3834 N.am    1  ZINC000435292384   -0.6000
     14 C14        -1.5641    3.2397   52.5002 C.3     1  ZINC000435292384    0.1000
     15 C15        -2.7006    4.1444   53.0099 C.3     1  ZINC000435292384   -0.1300
     16 C16        -3.4981    4.6802   51.8465 C.3     1  ZINC000435292384   -0.1100
     17 C17        -4.6677    3.7432   51.5610 C.3     1  ZINC000435292384   -0.1200
     18 C18        -4.3341    2.6054   50.6905 C.3     1  ZINC000435292384   -0.0700
     19 H19        -3.9382    2.9779   49.7457 H       1  ZINC000435292384    0.0900
     20 S20        -5.8324    1.6336   50.3721 S.3     1  ZINC000435292384   -0.2500
     21 C21        -6.0244    0.6686   51.8961 C.3     1  ZINC000435292384   -0.1200
     22 C22        -3.2779    1.7056   51.3665 C.3     1  ZINC000435292384    0.1400
     23 C23         0.9484    2.5746   49.0217 C.3     1  ZINC000435292384   -0.1400
     24 C24         2.3891    2.4725   49.4720 C.2     1  ZINC000435292384    0.5200
     25 O25         3.3512    2.5036   48.7344 O.2     1  ZINC000435292384   -0.5200
     26 H26         7.1319   -0.7763   52.4642 H       1  ZINC000435292384    0.0500
     27 H27         5.4773   -1.4287   52.3941 H       1  ZINC000435292384    0.0500
     28 H28         6.3002   -0.9266   50.8977 H       1  ZINC000435292384    0.0500
     29 H29         5.4742    0.9228   53.1813 H       1  ZINC000435292384    0.0600
     30 H30         6.2972    1.4248   51.6849 H       1  ZINC000435292384    0.0600
     31 H31         4.3847    0.5807   50.3506 H       1  ZINC000435292384    0.0800
     32 H32         3.5617    0.0802   51.8474 H       1  ZINC000435292384    0.0800
     33 H33         2.6817    1.7568   53.4209 H       1  ZINC000435292384    0.0700
     34 H34         4.3324    2.3917   53.6216 H       1  ZINC000435292384    0.0700
     35 H35         3.0059    3.4886   53.1682 H       1  ZINC000435292384    0.0600
     36 H36         0.8087    1.3073   51.6506 H       1  ZINC000435292384    0.0900
     37 H37         1.0833    2.9542   52.2926 H       1  ZINC000435292384    0.0800
     38 H38        -1.2185    2.6098   53.3200 H       1  ZINC000435292384    0.0700
     39 H39        -0.7374    3.8654   52.1639 H       1  ZINC000435292384    0.0900
     40 H40        -3.3562    3.5682   53.6628 H       1  ZINC000435292384    0.0700
     41 H41        -2.2758    4.9769   53.5709 H       1  ZINC000435292384    0.0800
     42 H42        -3.8780    5.6720   52.0920 H       1  ZINC000435292384    0.0700
     43 H43        -2.8590    4.7430   50.9657 H       1  ZINC000435292384    0.0600
     44 H44        -5.0403    3.3558   52.5093 H       1  ZINC000435292384    0.0800
     45 H45        -5.4645    4.3181   51.0890 H       1  ZINC000435292384    0.0600
     46 H46        -5.1435    0.0439   52.0440 H       1  ZINC000435292384    0.0800
     47 H47        -6.1363    1.3454   52.7431 H       1  ZINC000435292384    0.0800
     48 H48        -6.9089    0.0364   51.8169 H       1  ZINC000435292384    0.1000
     49 H49        -3.1878    0.7718   50.8116 H       1  ZINC000435292384    0.0900
     50 H50        -3.5854    1.4909   52.3899 H       1  ZINC000435292384    0.0900
     51 H51         0.6076    1.6276   48.6031 H       1  ZINC000435292384    0.1100
     52 H52         0.8354    3.3775   48.2932 H       1  ZINC000435292384    0.1100
@<TRIPOS>BOND
     1     1     2    1
     2     1    26    1
     3     1    27    1
     4     1    28    1
     5     2     3    1
     6     2    29    1
     7     2    30    1
     8     3     4    1
     9     3    31    1
    10     3    32    1
    11     4     5    1
    12     4     6    1
    13     4     7    1
    14     6    33    1
    15     6    34    1
    16     6    35    1
    17     7    24   am
    18     7     8    1
    19     8     9    1
    20     8    36    1
    21     8    37    1
    22     9    10    1
    23     9    11    1
    24     9    23    1
    25    11    12    2
    26    11    13   am
    27    13    22    1
    28    13    14    1
    29    14    15    1
    30    14    38    1
    31    14    39    1
    32    15    16    1
    33    15    40    1
    34    15    41    1
    35    16    17    1
    36    16    42    1
    37    16    43    1
    38    17    18    1
    39    17    44    1
    40    17    45    1
    41    18    19    1
    42    18    20    1
    43    18    22    1
    44    20    21    1
    45    21    46    1
    46    21    47    1
    47    21    48    1
    48    22    49    1
    49    22    50    1
    50    23    24    1
    51    23    51    1
    52    23    52    1
    53    24    25    2
@<TRIPOS>SUBSTRUCTURE
     1 ZINC000435292384        1 TEMP              0 ****  ****    0 ROOT


##########                                Name:    ZINC000460163972
##########                DOCK_Rotatable_Bonds:                   7
##########                         Heavy_Atoms:                  28
##########                    Molecular_Weight:             408.469
##########                DOCK_Rotatable_Bonds:                   7
##########                       Formal_Charge:          -0.0100001
##########                     HBond_Acceptors:                   8
##########                        HBond_Donors:                   2
##########                         Heavy_Atoms:                  28
##########                          Grid_Score:          -30.354565
##########                     Grid_vdw_energy:          -27.837124
##########                      Grid_es_energy:           -2.517441
##########           Internal_energy_repulsive:           53.070076

@<TRIPOS>MOLECULE
ZINC000460163972
 50 52 1 0 0
SMALL
USER_CHARGES


@<TRIPOS>ATOM
      1 C1          1.4934    3.5406   51.4824 C.3     1  ZINC000460163972   -0.1400
      2 C2          0.0567    3.1005   51.5977 C.ar    1  ZINC000460163972    0.0100
      3 C3         -0.4116    2.0619   50.8143 C.ar    1  ZINC000460163972   -0.1300
      4 C4         -1.7280    1.6561   50.9176 C.ar    1  ZINC000460163972   -0.0600
      5 C5         -2.5809    2.2921   51.8096 C.ar    1  ZINC000460163972    0.1100
      6 N6         -3.9148    1.8831   51.9169 N.am    1  ZINC000460163972   -0.6700
      7 C7         -4.7246    1.9359   50.8408 C.2     1  ZINC000460163972    0.5200
      8 O8         -4.2970    2.3379   49.7793 O.2     1  ZINC000460163972   -0.5100
      9 C9         -6.1611    1.4955   50.9563 C.3     1  ZINC000460163972   -0.0700
     10 H10        -6.5315    1.2026   49.9740 H       1  ZINC000460163972    0.1200
     11 C11        -6.2541    0.3046   51.9124 C.3     1  ZINC000460163972   -0.1500
     12 C12        -6.9940    2.6331   51.4884 C.ar    1  ZINC000460163972   -0.0600
     13 C13        -7.5847    3.5246   50.6128 C.ar    1  ZINC000460163972   -0.0700
     14 C14        -8.3492    4.5692   51.0986 C.ar    1  ZINC000460163972   -0.1200
     15 C15        -8.5240    4.7227   52.4626 C.ar    1  ZINC000460163972    0.0700
     16 F16        -9.2713    5.7429   52.9381 F       1  ZINC000460163972   -0.1300
     17 C17        -7.9316    3.8279   53.3411 C.ar    1  ZINC000460163972    0.0700
     18 F18        -8.1008    3.9757   54.6733 F       1  ZINC000460163972   -0.1300
     19 C19        -7.1710    2.7807   52.8516 C.ar    1  ZINC000460163972   -0.1200
     20 C20        -2.1073    3.3348   52.5954 C.ar    1  ZINC000460163972    0.0000
     21 C21        -3.0297    4.0276   53.5652 C.3     1  ZINC000460163972   -0.1500
     22 C22        -0.7892    3.7326   52.4909 C.ar    1  ZINC000460163972   -0.6700
     23 S23        -0.1872    5.0549   53.4878 S.o2    1  ZINC000460163972    2.7000
     24 O24         1.2004    4.8146   53.6779 O.2     1  ZINC000460163972   -0.9500
     25 O25        -0.6977    6.2520   52.9174 O.2     1  ZINC000460163972   -0.9500
     26 N26        -0.8956    4.9074   54.9774 N.am    1  ZINC000460163972   -1.0900
     27 C27        -0.6855    3.6944   55.7715 C.3     1  ZINC000460163972    0.0800
     28 C28         0.6123    3.5924   56.5755 C.3     1  ZINC000460163972   -0.1800
     29 C29        -0.7164    3.8333   57.2949 C.3     1  ZINC000460163972   -0.1900
     30 H30         2.0874    3.0470   52.2516 H       1  ZINC000460163972    0.1000
     31 H31         1.8778    3.2722   50.4983 H       1  ZINC000460163972    0.0800
     32 H32         1.5540    4.6209   51.6140 H       1  ZINC000460163972    0.0700
     33 H33         0.2524    1.5675   50.1207 H       1  ZINC000460163972    0.1400
     34 H34        -2.0933    0.8451   50.3049 H       1  ZINC000460163972    0.1600
     35 H35        -4.2568    1.5617   52.7657 H       1  ZINC000460163972    0.4100
     36 H36        -7.2931   -0.0139   51.9959 H       1  ZINC000460163972    0.0800
     37 H37        -5.6516   -0.5182   51.5275 H       1  ZINC000460163972    0.0700
     38 H38        -5.8837    0.5976   52.8948 H       1  ZINC000460163972    0.0700
     39 H39        -7.4486    3.4054   49.5481 H       1  ZINC000460163972    0.1400
     40 H40        -8.8097    5.2655   50.4134 H       1  ZINC000460163972    0.1500
     41 H41        -6.7095    2.0830   53.5348 H       1  ZINC000460163972    0.1500
     42 H42        -2.8986    3.6006   54.5595 H       1  ZINC000460163972    0.1000
     43 H43        -2.7949    5.0917   53.5929 H       1  ZINC000460163972    0.1000
     44 H44        -4.0626    3.8917   53.2447 H       1  ZINC000460163972    0.0700
     45 H45        -1.4497    5.6242   55.3240 H       1  ZINC000460163972    0.4200
     46 H46        -1.0851    2.7759   55.3417 H       1  ZINC000460163972    0.1300
     47 H47         1.0668    2.6067   56.6746 H       1  ZINC000460163972    0.1100
     48 H48         1.3097    4.4278   56.5135 H       1  ZINC000460163972    0.1000
     49 H49        -0.8931    4.8271   57.7062 H       1  ZINC000460163972    0.1000
     50 H50        -1.1360    3.0059   57.8673 H       1  ZINC000460163972    0.1000
@<TRIPOS>BOND
     1     1     2    1
     2     1    30    1
     3     1    31    1
     4     1    32    1
     5     2    22   ar
     6     2     3   ar
     7     3     4   ar
     8     3    33    1
     9     4     5   ar
    10     4    34    1
    11     5     6    1
    12     5    20   ar
    13     6     7   am
    14     6    35    1
    15     7     8    2
    16     7     9    1
    17     9    10    1
    18     9    11    1
    19     9    12    1
    20    11    36    1
    21    11    37    1
    22    11    38    1
    23    12    19   ar
    24    12    13   ar
    25    13    14   ar
    26    13    39    1
    27    14    15   ar
    28    14    40    1
    29    15    16    1
    30    15    17   ar
    31    17    18    1
    32    17    19   ar
    33    19    41    1
    34    20    21    1
    35    20    22   ar
    36    21    42    1
    37    21    43    1
    38    21    44    1
    39    22    23    1
    40    23    24    2
    41    23    25    2
    42    23    26   am
    43    26    27    1
    44    26    45    1
    45    27    29    1
    46    27    28    1
    47    27    46    1
    48    28    29    1
    49    28    47    1
    50    28    48    1
    51    29    49    1
    52    29    50    1
@<TRIPOS>SUBSTRUCTURE
     1 ZINC000460163972        1 TEMP              0 ****  ****    0 ROOT


##########                                Name:    ZINC000477669194
##########                DOCK_Rotatable_Bonds:                   6
##########                         Heavy_Atoms:                  26
##########                    Molecular_Weight:             387.483
##########                DOCK_Rotatable_Bonds:                   6
##########                       Formal_Charge:         4.47035e-07
##########                     HBond_Acceptors:                   8
##########                        HBond_Donors:                   2
##########                         Heavy_Atoms:                  26
##########                          Grid_Score:          -30.351381
##########                     Grid_vdw_energy:          -31.554258
##########                      Grid_es_energy:            1.202878
##########           Internal_energy_repulsive:           27.066174

@<TRIPOS>MOLECULE
ZINC000477669194
 43 45 1 0 0
SMALL
USER_CHARGES


@<TRIPOS>ATOM
      1 C1         -5.3450    3.7993   55.8428 C.3     1  ZINC000477669194   -0.0800
      2 C2         -3.9430    3.8071   55.2901 C.2     1  ZINC000477669194    0.0500
      3 N3         -3.6205    3.4325   54.1007 N.2     1  ZINC000477669194   -0.4900
      4 C4         -2.3387    3.5029   53.7718 C.2     1  ZINC000477669194    0.1200
      5 C5         -1.8246    3.1058   52.4386 C.ar    1  ZINC000477669194   -0.0600
      6 C6         -0.4619    3.1832   52.1629 C.ar    1  ZINC000477669194   -0.0800
      7 C7          0.0119    2.8124   50.9200 C.ar    1  ZINC000477669194   -0.1400
      8 C8         -0.8620    2.3636   49.9459 C.ar    1  ZINC000477669194   -0.0900
      9 C9         -2.2168    2.2827   50.2077 C.ar    1  ZINC000477669194   -0.1300
     10 C10        -2.7062    2.6458   51.4534 C.ar    1  ZINC000477669194    0.1800
     11 N11        -4.0758    2.5643   51.7200 N.am    1  ZINC000477669194   -0.6500
     12 C12        -4.6960    1.3680   51.7002 C.2     1  ZINC000477669194    0.5600
     13 O13        -4.0641    0.3594   51.4504 O.2     1  ZINC000477669194   -0.5200
     14 C14        -6.1413    1.2818   51.9817 C.ar    1  ZINC000477669194   -0.1500
     15 C15        -6.9463    2.4190   51.8663 C.ar    1  ZINC000477669194   -0.0600
     16 C16        -8.2945    2.3354   52.1291 C.ar    1  ZINC000477669194   -0.1400
     17 C17        -8.8570    1.1200   52.5094 C.ar    1  ZINC000477669194    0.1700
     18 N18       -10.2197    1.0388   52.7742 N.am    1  ZINC000477669194   -1.0600
     19 S19       -10.8798   -0.3913   53.2857 S.o2    1  ZINC000477669194    2.6100
     20 C20       -12.6437   -0.0250   53.4987 C.3     1  ZINC000477669194   -0.6700
     21 O21       -10.6831   -1.2786   52.1934 O.2     1  ZINC000477669194   -0.9400
     22 O22       -10.2648   -0.6309   54.5441 O.2     1  ZINC000477669194   -0.9500
     23 C23        -8.0581   -0.0143   52.6247 C.ar    1  ZINC000477669194   -0.1600
     24 C24        -6.7102    0.0617   52.3586 C.ar    1  ZINC000477669194   -0.0300
     25 C25        -1.5430    3.9679   54.7563 C.2     1  ZINC000477669194   -0.2600
     26 S26        -2.5592    4.3211   56.1515 S.3     1  ZINC000477669194    0.1500
     27 H27        -5.3335    4.1695   56.8679 H       1  ZINC000477669194    0.0800
     28 H28        -5.9799    4.4409   55.2318 H       1  ZINC000477669194    0.0900
     29 H29        -5.7356    2.7818   55.8283 H       1  ZINC000477669194    0.0900
     30 H30         0.2237    3.5335   52.9202 H       1  ZINC000477669194    0.1300
     31 H31         1.0690    2.8733   50.7074 H       1  ZINC000477669194    0.1300
     32 H32        -0.4839    2.0752   48.9763 H       1  ZINC000477669194    0.1300
     33 H33        -2.8941    1.9322   49.4431 H       1  ZINC000477669194    0.1500
     34 H34        -4.5798    3.3687   51.9192 H       1  ZINC000477669194    0.4200
     35 H35        -6.5106    3.3622   51.5717 H       1  ZINC000477669194    0.1300
     36 H36        -8.9169    3.2135   52.0406 H       1  ZINC000477669194    0.1400
     37 H37       -10.7834    1.8197   52.6594 H       1  ZINC000477669194    0.4300
     38 H38       -13.0846    0.2140   52.5309 H       1  ZINC000477669194    0.1300
     39 H39       -13.1467   -0.8942   53.9224 H       1  ZINC000477669194    0.1400
     40 H40       -12.7596    0.8253   54.1707 H       1  ZINC000477669194    0.1300
     41 H41        -8.4975   -0.9559   52.9195 H       1  ZINC000477669194    0.1700
     42 H42        -6.0910   -0.8188   52.4479 H       1  ZINC000477669194    0.1500
     43 H43        -0.4732    4.1035   54.6984 H       1  ZINC000477669194    0.1800
@<TRIPOS>BOND
     1     1     2    1
     2     1    27    1
     3     1    28    1
     4     1    29    1
     5     2    26    1
     6     2     3    2
     7     3     4    1
     8     4     5    1
     9     4    25    2
    10     5    10   ar
    11     5     6   ar
    12     6     7   ar
    13     6    30    1
    14     7     8   ar
    15     7    31    1
    16     8     9   ar
    17     8    32    1
    18     9    10   ar
    19     9    33    1
    20    10    11    1
    21    11    12   am
    22    11    34    1
    23    12    13    2
    24    12    14    1
    25    14    24   ar
    26    14    15   ar
    27    15    16   ar
    28    15    35    1
    29    16    17   ar
    30    16    36    1
    31    17    18    1
    32    17    23   ar
    33    18    19   am
    34    18    37    1
    35    19    20    1
    36    19    21    2
    37    19    22    2
    38    20    38    1
    39    20    39    1
    40    20    40    1
    41    23    24   ar
    42    23    41    1
    43    24    42    1
    44    25    26    1
    45    25    43    1
@<TRIPOS>SUBSTRUCTURE
     1 ZINC000477669194        1 TEMP              0 ****  ****    0 ROOT


##########                                Name:    ZINC000437192871
##########                DOCK_Rotatable_Bonds:                   9
##########                         Heavy_Atoms:                  28
##########                    Molecular_Weight:             423.298
##########                DOCK_Rotatable_Bonds:                   9
##########                       Formal_Charge:         -8.9407e-08
##########                     HBond_Acceptors:                   9
##########                        HBond_Donors:                   1
##########                         Heavy_Atoms:                  28
##########                          Grid_Score:          -30.337864
##########                     Grid_vdw_energy:          -29.643139
##########                      Grid_es_energy:           -0.694724
##########           Internal_energy_repulsive:           15.740620

@<TRIPOS>MOLECULE
ZINC000437192871
 48 50 1 0 0
SMALL
USER_CHARGES


@<TRIPOS>ATOM
      1 C1        -11.7265   -0.6905   54.2287 C.3     1  ZINC000437192871   -0.1700
      2 C2        -11.2978   -0.1630   52.8579 C.3     1  ZINC000437192871    0.1300
      3 N3         -9.8362   -0.0797   52.8021 N.pl3   1  ZINC000437192871   -0.3600
      4 C4         -9.0889    0.9936   53.1346 C.2     1  ZINC000437192871    0.0700
      5 C5         -7.7897    0.6666   52.9444 C.2     1  ZINC000437192871   -0.2700
      6 C6         -6.6044    1.5640   53.1906 C.3     1  ZINC000437192871    0.1900
      7 N7         -6.3413    2.3653   51.9927 N.am    1  ZINC000437192871   -0.6000
      8 C8         -5.7280    1.7442   50.8161 C.3     1  ZINC000437192871    0.1100
      9 C9         -4.2626    2.1730   50.7185 C.3     1  ZINC000437192871    0.0600
     10 O10        -3.6762    2.1654   52.0216 O.3     1  ZINC000437192871   -0.5600
     11 C11        -6.6635    3.6738   51.9731 C.2     1  ZINC000437192871    0.6000
     12 O12        -6.4450    4.3391   50.9787 O.2     1  ZINC000437192871   -0.5000
     13 C13        -7.2801    4.2981   53.1559 C.2     1  ZINC000437192871   -0.2200
     14 C14        -8.5774    4.7103   53.3275 C.2     1  ZINC000437192871    0.0100
     15 C15        -9.6937    4.6156   52.3195 C.3     1  ZINC000437192871   -0.0800
     16 O16        -8.6575    5.2111   54.5624 O.3     1  ZINC000437192871    0.1100
     17 N17        -7.6136    5.1671   55.1658 N.2     1  ZINC000437192871   -0.3200
     18 C18        -6.6557    4.6294   54.4540 C.2     1  ZINC000437192871    0.0800
     19 C19        -5.2465    4.4088   54.8592 C.ar    1  ZINC000437192871   -0.0200
     20 C20        -4.2091    4.9643   54.1126 C.ar    1  ZINC000437192871   -0.0700
     21 C21        -2.8994    4.7565   54.4941 C.ar    1  ZINC000437192871   -0.1000
     22 C22        -2.6142    3.9976   55.6164 C.ar    1  ZINC000437192871   -0.0100
     23 Cl23       -0.9639    3.7410   56.0904 Cl      1  ZINC000437192871   -0.0500
     24 C24        -3.6401    3.4431   56.3622 C.ar    1  ZINC000437192871   -0.1100
     25 C25        -4.9546    3.6491   55.9925 C.ar    1  ZINC000437192871    0.0000
     26 Cl26       -6.2407    2.9539   56.9286 Cl      1  ZINC000437192871   -0.0300
     27 C27        -7.7414   -0.6517   52.4795 C.2     1  ZINC000437192871    0.0600
     28 N28        -8.9672   -1.1021   52.3995 N.2     1  ZINC000437192871   -0.2900
     29 H29       -12.8139   -0.7525   54.2702 H       1  ZINC000437192871    0.0800
     30 H30       -11.2998   -1.6810   54.3866 H       1  ZINC000437192871    0.0600
     31 H31       -11.3712   -0.0137   55.0058 H       1  ZINC000437192871    0.0700
     32 H32       -11.6531   -0.8398   52.0808 H       1  ZINC000437192871    0.1000
     33 H33       -11.7244    0.8275   52.7001 H       1  ZINC000437192871    0.0900
     34 H34        -9.4611    1.9435   53.4890 H       1  ZINC000437192871    0.1600
     35 H35        -6.8176    2.2253   54.0305 H       1  ZINC000437192871    0.0900
     36 H36        -5.7295    0.9556   53.4202 H       1  ZINC000437192871    0.0800
     37 H37        -5.7838    0.6594   50.9073 H       1  ZINC000437192871    0.1000
     38 H38        -6.2599    2.0612   49.9191 H       1  ZINC000437192871    0.1000
     39 H39        -3.7233    1.4795   50.0733 H       1  ZINC000437192871    0.0600
     40 H40        -4.2051    3.1779   50.3000 H       1  ZINC000437192871    0.0500
     41 H41        -3.6923    1.3012   52.4551 H       1  ZINC000437192871    0.3800
     42 H42       -10.2669    3.7055   52.4967 H       1  ZINC000437192871    0.1000
     43 H43       -10.3475    5.4820   52.4190 H       1  ZINC000437192871    0.0900
     44 H44        -9.2740    4.5906   51.3139 H       1  ZINC000437192871    0.0900
     45 H45        -4.4299    5.5562   53.2367 H       1  ZINC000437192871    0.1600
     46 H46        -2.0950    5.1865   53.9156 H       1  ZINC000437192871    0.1500
     47 H47        -3.4124    2.8519   57.2369 H       1  ZINC000437192871    0.1500
     48 H48        -6.8465   -1.2041   52.2339 H       1  ZINC000437192871    0.1800
@<TRIPOS>BOND
     1     1     2    1
     2     1    29    1
     3     1    30    1
     4     1    31    1
     5     2     3    1
     6     2    32    1
     7     2    33    1
     8     3    28    1
     9     3     4    1
    10     4     5    2
    11     4    34    1
    12     5     6    1
    13     5    27    1
    14     6     7    1
    15     6    35    1
    16     6    36    1
    17     7     8    1
    18     7    11   am
    19     8     9    1
    20     8    37    1
    21     8    38    1
    22     9    10    1
    23     9    39    1
    24     9    40    1
    25    10    41    1
    26    11    12    2
    27    11    13    1
    28    13    18    1
    29    13    14    2
    30    14    15    1
    31    14    16    1
    32    15    42    1
    33    15    43    1
    34    15    44    1
    35    16    17    1
    36    17    18    2
    37    18    19    1
    38    19    25   ar
    39    19    20   ar
    40    20    21   ar
    41    20    45    1
    42    21    22   ar
    43    21    46    1
    44    22    23    1
    45    22    24   ar
    46    24    25   ar
    47    24    47    1
    48    25    26    1
    49    27    28    2
    50    27    48    1
@<TRIPOS>SUBSTRUCTURE
     1 ZINC000437192871        1 TEMP              0 ****  ****    0 ROOT


##########                                Name:    ZINC001386869844
##########                DOCK_Rotatable_Bonds:                   9
##########                         Heavy_Atoms:                  25
##########                    Molecular_Weight:             345.485
##########                DOCK_Rotatable_Bonds:                   9
##########                       Formal_Charge:          -0.0300003
##########                     HBond_Acceptors:                   5
##########                        HBond_Donors:                   2
##########                         Heavy_Atoms:                  25
##########                          Grid_Score:          -30.337204
##########                     Grid_vdw_energy:          -30.888067
##########                      Grid_es_energy:            0.550862
##########           Internal_energy_repulsive:           27.943384

@<TRIPOS>MOLECULE
ZINC001386869844
 56 58 1 0 0
SMALL
USER_CHARGES


@<TRIPOS>ATOM
      1 C1         -5.0829    3.6392   50.8652 C.3     1  ZINC001386869844    0.0600
      2 N2         -5.3456    2.2144   51.0823 N.am    1  ZINC001386869844   -0.6200
      3 C3         -6.7244    1.7202   51.1131 C.3     1  ZINC001386869844    0.1100
      4 C4         -7.2985    1.8976   52.5201 C.3     1  ZINC001386869844    0.1000
      5 N5         -8.7526    1.7237   52.4797 N.am    1  ZINC001386869844   -0.7300
      6 C6         -9.2913    0.5044   52.6790 C.2     1  ZINC001386869844    0.5200
      7 O7         -8.5719   -0.4497   52.8868 O.2     1  ZINC001386869844   -0.5300
      8 C8        -10.7870    0.3255   52.6374 C.3     1  ZINC001386869844   -0.1300
      9 C9        -11.3562    0.4603   54.0512 C.3     1  ZINC001386869844   -0.0100
     10 C10       -12.8825    0.5382   53.9812 C.3     1  ZINC001386869844   -0.1500
     11 C11       -10.9452   -0.7553   54.8845 C.3     1  ZINC001386869844   -0.1600
     12 C12       -10.8097    1.7328   54.7017 C.3     1  ZINC001386869844   -0.1500
     13 C13        -9.8397    1.5669   55.8732 C.3     1  ZINC001386869844   -0.1900
     14 C14       -11.2695    2.0516   56.1258 C.3     1  ZINC001386869844   -0.1800
     15 C15        -4.3189    1.3583   51.2538 C.2     1  ZINC001386869844    0.5900
     16 O16        -4.5371    0.1748   51.4343 O.2     1  ZINC001386869844   -0.5200
     17 C17        -2.9384    1.8532   51.2230 C.2     1  ZINC001386869844   -0.0600
     18 C18        -2.3511    2.6893   52.1513 C.2     1  ZINC001386869844   -0.0900
     19 C19        -1.0396    2.9022   51.7344 C.2     1  ZINC001386869844   -0.1700
     20 C20        -0.8468    2.2090   50.5808 C.2     1  ZINC001386869844    0.0500
     21 C21         0.4557    2.1931   49.8166 C.3     1  ZINC001386869844   -0.0600
     22 C22         1.3165    3.3652   50.3024 C.3     1  ZINC001386869844   -0.1100
     23 C23         1.3843    3.3506   51.8320 C.3     1  ZINC001386869844   -0.1200
     24 C24         0.0177    3.7412   52.4077 C.3     1  ZINC001386869844   -0.0500
     25 N25        -1.9909    1.5630   50.2655 N.pl3   1  ZINC001386869844   -0.5400
     26 H26        -4.9422    4.1333   51.8265 H       1  ZINC001386869844    0.0600
     27 H27        -4.1824    3.7548   50.2619 H       1  ZINC001386869844    0.0800
     28 H28        -5.9286    4.0895   50.3455 H       1  ZINC001386869844    0.0900
     29 H29        -6.7376    0.6635   50.8459 H       1  ZINC001386869844    0.1000
     30 H30        -7.3279    2.2826   50.4007 H       1  ZINC001386869844    0.0900
     31 H31        -7.0622    2.8970   52.8855 H       1  ZINC001386869844    0.0700
     32 H32        -6.8620    1.1542   53.1870 H       1  ZINC001386869844    0.0700
     33 H33        -9.3277    2.4861   52.3094 H       1  ZINC001386869844    0.4000
     34 H34       -11.2264    1.0882   51.9946 H       1  ZINC001386869844    0.0900
     35 H35       -11.0240   -0.6626   52.2431 H       1  ZINC001386869844    0.0900
     36 H36       -13.2718   -0.3683   53.5178 H       1  ZINC001386869844    0.0800
     37 H37       -13.2879    0.6343   54.9886 H       1  ZINC001386869844    0.0500
     38 H38       -13.1754    1.4043   53.3876 H       1  ZINC001386869844    0.0500
     39 H39        -9.8578   -0.8108   54.9343 H       1  ZINC001386869844    0.0500
     40 H40       -11.3506   -0.6593   55.8917 H       1  ZINC001386869844    0.0500
     41 H41       -11.3344   -1.6618   54.4210 H       1  ZINC001386869844    0.0800
     42 H42       -10.6444    2.5723   54.0265 H       1  ZINC001386869844    0.1000
     43 H43        -9.5908    0.5511   56.1805 H       1  ZINC001386869844    0.1000
     44 H44        -9.0363    2.2974   55.9687 H       1  ZINC001386869844    0.0900
     45 H45       -11.4062    3.1009   56.3874 H       1  ZINC001386869844    0.0900
     46 H46       -11.9612    1.3549   56.5992 H       1  ZINC001386869844    0.0900
     47 H47        -2.8199    3.1007   53.0330 H       1  ZINC001386869844    0.1500
     48 H48         0.9775    1.2538   50.0000 H       1  ZINC001386869844    0.0800
     49 H49         0.2569    2.3010   48.7503 H       1  ZINC001386869844    0.0800
     50 H50         2.3223    3.2711   49.8933 H       1  ZINC001386869844    0.0700
     51 H51         0.8746    4.3035   49.9675 H       1  ZINC001386869844    0.0700
     52 H52         1.6506    2.3506   52.1744 H       1  ZINC001386869844    0.0600
     53 H53         2.1377    4.0626   52.1690 H       1  ZINC001386869844    0.0700
     54 H54        -0.1736    4.7968   52.2153 H       1  ZINC001386869844    0.0700
     55 H55         0.0051    3.5552   53.4818 H       1  ZINC001386869844    0.0700
     56 H56        -2.1237    0.9919   49.4928 H       1  ZINC001386869844    0.4200
@<TRIPOS>BOND
     1     1     2    1
     2     1    26    1
     3     1    27    1
     4     1    28    1
     5     2     3    1
     6     2    15   am
     7     3     4    1
     8     3    29    1
     9     3    30    1
    10     4     5    1
    11     4    31    1
    12     4    32    1
    13     5     6   am
    14     5    33    1
    15     6     7    2
    16     6     8    1
    17     8     9    1
    18     8    34    1
    19     8    35    1
    20     9    10    1
    21     9    11    1
    22     9    12    1
    23    10    36    1
    24    10    37    1
    25    10    38    1
    26    11    39    1
    27    11    40    1
    28    11    41    1
    29    12    14    1
    30    12    13    1
    31    12    42    1
    32    13    14    1
    33    13    43    1
    34    13    44    1
    35    14    45    1
    36    14    46    1
    37    15    16    2
    38    15    17    1
    39    17    25    1
    40    17    18    2
    41    18    19    1
    42    18    47    1
    43    19    24    1
    44    19    20    2
    45    20    21    1
    46    20    25    1
    47    21    22    1
    48    21    48    1
    49    21    49    1
    50    22    23    1
    51    22    50    1
    52    22    51    1
    53    23    24    1
    54    23    52    1
    55    23    53    1
    56    24    54    1
    57    24    55    1
    58    25    56    1
@<TRIPOS>SUBSTRUCTURE
     1 ZINC001386869844        1 TEMP              0 ****  ****    0 ROOT


##########                                Name:    ZINC000548281822
##########                DOCK_Rotatable_Bonds:                   6
##########                         Heavy_Atoms:                  24
##########                    Molecular_Weight:             332.406
##########                DOCK_Rotatable_Bonds:                   6
##########                       Formal_Charge:        -5.58794e-08
##########                     HBond_Acceptors:                   8
##########                        HBond_Donors:                   2
##########                         Heavy_Atoms:                  24
##########                          Grid_Score:          -30.296602
##########                     Grid_vdw_energy:          -30.516058
##########                      Grid_es_energy:            0.219456
##########           Internal_energy_repulsive:            6.508572

@<TRIPOS>MOLECULE
ZINC000548281822
 48 50 1 0 0
SMALL
USER_CHARGES


@<TRIPOS>ATOM
      1 C1        -12.0516    0.0327   52.5481 C.3     1  ZINC000548281822   -0.1700
      2 C2        -10.6346   -0.1461   53.0968 C.3     1  ZINC000548281822    0.2600
      3 H3        -10.2067   -1.0686   52.7043 H       1  ZINC000548281822    0.1400
      4 N4         -9.8053    0.9899   52.6872 N.am    1  ZINC000548281822   -0.7400
      5 C5         -8.4630    0.8711   52.6650 C.2     1  ZINC000548281822    0.7100
      6 O6         -7.9402   -0.1785   52.9864 O.2     1  ZINC000548281822   -0.5700
      7 N7         -7.7001    1.9158   52.2867 N.am    1  ZINC000548281822   -0.7400
      8 C8         -6.2411    1.7860   52.2609 C.3     1  ZINC000548281822    0.1600
      9 H9         -5.9533    0.8265   52.6906 H       1  ZINC000548281822    0.1000
     10 C10        -5.7459    1.8675   50.8140 C.3     1  ZINC000548281822   -0.1400
     11 C11        -4.2590    1.4997   50.7606 C.3     1  ZINC000548281822    0.1100
     12 N12        -3.5417    2.2870   51.7661 N.pl3   1  ZINC000548281822   -0.4600
     13 C13        -2.2003    2.5157   51.8465 C.2     1  ZINC000548281822   -0.0500
     14 C14        -2.0041    3.2920   52.9316 C.2     1  ZINC000548281822   -0.0300
     15 N15        -3.1994    3.5284   53.4963 N.2     1  ZINC000548281822   -0.4900
     16 C16        -4.1251    2.9301   52.8053 C.2     1  ZINC000548281822    0.2100
     17 C17        -5.6112    2.9222   53.0766 C.3     1  ZINC000548281822   -0.0500
     18 C18       -10.6835   -0.2157   54.6014 C.2     1  ZINC000548281822    0.1700
     19 N19       -10.8388   -1.2958   55.3286 N.2     1  ZINC000548281822   -0.4600
     20 C20       -10.8203   -0.8774   56.6067 C.2     1  ZINC000548281822    0.1900
     21 C21       -10.9617   -1.7445   57.8311 C.3     1  ZINC000548281822    0.0200
     22 C22       -10.3453   -3.1179   57.5574 C.3     1  ZINC000548281822   -0.1400
     23 C23       -10.2389   -1.0866   59.0082 C.3     1  ZINC000548281822   -0.1400
     24 C24       -12.4444   -1.9094   58.1709 C.3     1  ZINC000548281822   -0.1400
     25 N25       -10.6578    0.4118   56.5919 N.2     1  ZINC000548281822   -0.3700
     26 O26       -10.5712    0.8109   55.4496 O.3     1  ZINC000548281822    0.0800
     27 H27       -12.4795    0.9552   52.9407 H       1  ZINC000548281822    0.0700
     28 H28       -12.0161    0.0830   51.4599 H       1  ZINC000548281822    0.0900
     29 H29       -12.6686   -0.8126   52.8529 H       1  ZINC000548281822    0.0800
     30 H30       -10.2224    1.8277   52.4320 H       1  ZINC000548281822    0.4000
     31 H31        -8.1172    2.7536   52.0315 H       1  ZINC000548281822    0.4000
     32 H32        -6.3143    1.1727   50.1958 H       1  ZINC000548281822    0.1000
     33 H33        -5.8827    2.8821   50.4398 H       1  ZINC000548281822    0.0800
     34 H34        -4.1376    0.4377   50.9733 H       1  ZINC000548281822    0.0900
     35 H35        -3.8626    1.7238   49.7702 H       1  ZINC000548281822    0.1000
     36 H36        -1.4418    2.1462   51.1724 H       1  ZINC000548281822    0.1800
     37 H37        -1.0520    3.6589   53.2852 H       1  ZINC000548281822    0.1700
     38 H38        -6.0452    3.8755   52.7747 H       1  ZINC000548281822    0.0900
     39 H39        -5.7902    2.7560   54.1389 H       1  ZINC000548281822    0.1000
     40 H40        -9.2890   -3.0004   57.3153 H       1  ZINC000548281822    0.0600
     41 H41       -10.4476   -3.7451   58.4430 H       1  ZINC000548281822    0.0700
     42 H42       -10.8603   -3.5866   56.7188 H       1  ZINC000548281822    0.0700
     43 H43       -10.6780   -0.1082   59.2033 H       1  ZINC000548281822    0.0600
     44 H44       -10.3411   -1.7138   59.8938 H       1  ZINC000548281822    0.0700
     45 H45        -9.1826   -0.9691   58.7662 H       1  ZINC000548281822    0.0600
     46 H46       -12.9594   -2.3782   57.3323 H       1  ZINC000548281822    0.0700
     47 H47       -12.5466   -2.5367   59.0564 H       1  ZINC000548281822    0.0700
     48 H48       -12.8835   -0.9311   58.3659 H       1  ZINC000548281822    0.0600
@<TRIPOS>BOND
     1     1     2    1
     2     1    27    1
     3     1    28    1
     4     1    29    1
     5     2     3    1
     6     2     4    1
     7     2    18    1
     8     4     5   am
     9     4    30    1
    10     5     6    2
    11     5     7   am
    12     7     8    1
    13     7    31    1
    14     8     9    1
    15     8    17    1
    16     8    10    1
    17    10    11    1
    18    10    32    1
    19    10    33    1
    20    11    12    1
    21    11    34    1
    22    11    35    1
    23    12    16    1
    24    12    13    1
    25    13    14    2
    26    13    36    1
    27    14    15    1
    28    14    37    1
    29    15    16    2
    30    16    17    1
    31    17    38    1
    32    17    39    1
    33    18    26    1
    34    18    19    2
    35    19    20    1
    36    20    21    1
    37    20    25    2
    38    21    22    1
    39    21    23    1
    40    21    24    1
    41    22    40    1
    42    22    41    1
    43    22    42    1
    44    23    43    1
    45    23    44    1
    46    23    45    1
    47    24    46    1
    48    24    47    1
    49    24    48    1
    50    25    26    1
@<TRIPOS>SUBSTRUCTURE
     1 ZINC000548281822        1 TEMP              0 ****  ****    0 ROOT


##########                                Name:    ZINC000482139334
##########                DOCK_Rotatable_Bonds:                   4
##########                         Heavy_Atoms:                  26
##########                    Molecular_Weight:             348.376
##########                DOCK_Rotatable_Bonds:                   4
##########                       Formal_Charge:           0.0300002
##########                     HBond_Acceptors:                   5
##########                        HBond_Donors:                   1
##########                         Heavy_Atoms:                  26
##########                          Grid_Score:          -30.285784
##########                     Grid_vdw_energy:          -30.371166
##########                      Grid_es_energy:            0.085382
##########           Internal_energy_repulsive:           15.503125

@<TRIPOS>MOLECULE
ZINC000482139334
 43 47 1 0 0
SMALL
USER_CHARGES


@<TRIPOS>ATOM
      1 O1         -4.2441    3.8842   52.7432 O.2     1  ZINC000482139334   -0.4800
      2 C2         -4.6100    3.2498   51.7765 C.2     1  ZINC000482139334    0.5500
      3 N3         -3.7010    2.6714   50.9667 N.am    1  ZINC000482139334   -0.6100
      4 C4         -2.3479    2.8066   51.2353 C.2     1  ZINC000482139334    0.4300
      5 N5         -1.3761    2.3129   50.5118 N.2     1  ZINC000482139334   -0.4800
      6 C6         -0.1938    2.6528   51.0890 C.2     1  ZINC000482139334    0.0400
      7 C7          1.1593    2.2973   50.5952 C.ar    1  ZINC000482139334   -0.0500
      8 C8          1.3470    1.9480   49.2598 C.ar    1  ZINC000482139334   -0.0800
      9 C9          2.6082    1.6186   48.8054 C.ar    1  ZINC000482139334   -0.1300
     10 C10         3.6855    1.6341   49.6725 C.ar    1  ZINC000482139334   -0.0800
     11 C11         3.5073    1.9793   51.0000 C.ar    1  ZINC000482139334   -0.1600
     12 C12         2.2504    2.3172   51.4654 C.ar    1  ZINC000482139334    0.1300
     13 F13         2.0765    2.6545   52.7620 F       1  ZINC000482139334   -0.1200
     14 C14        -0.4785    3.3762   52.1976 C.2     1  ZINC000482139334   -0.0600
     15 O15        -1.8222    3.4702   52.2764 O.3     1  ZINC000482139334   -0.1800
     16 C16        -6.0811    3.1027   51.4844 C.3     1  ZINC000482139334   -0.1800
     17 H17        -6.7113    3.9274   51.8173 H       1  ZINC000482139334    0.1400
     18 C18        -6.4771    2.3877   50.1897 C.3     1  ZINC000482139334   -0.1200
     19 C19        -6.6724    1.6994   51.5369 C.3     1  ZINC000482139334   -0.0500
     20 C20        -5.8156    0.4884   51.9424 C.3     1  ZINC000482139334   -0.0700
     21 C21        -6.8760   -0.6237   52.1013 C.3     1  ZINC000482139334   -0.0900
     22 C22        -8.1655    0.1000   52.4281 C.ar    1  ZINC000482139334   -0.0800
     23 C23        -9.3481   -0.3750   52.9684 C.ar    1  ZINC000482139334   -0.1100
     24 C24       -10.4102    0.4823   53.1807 C.ar    1  ZINC000482139334   -0.1100
     25 C25       -10.2928    1.8197   52.8525 C.ar    1  ZINC000482139334   -0.1200
     26 C26        -9.1138    2.2963   52.3134 C.ar    1  ZINC000482139334   -0.1000
     27 C27        -8.0472    1.4395   52.0998 C.ar    1  ZINC000482139334   -0.0700
     28 H28        -3.9937    2.1607   50.1957 H       1  ZINC000482139334    0.4400
     29 H29         0.5069    1.9346   48.5811 H       1  ZINC000482139334    0.1300
     30 H30         2.7539    1.3477   47.7700 H       1  ZINC000482139334    0.1400
     31 H31         4.6701    1.3751   49.3117 H       1  ZINC000482139334    0.1400
     32 H32         4.3520    1.9891   51.6728 H       1  ZINC000482139334    0.1400
     33 H33         0.2357    3.8011   52.8873 H       1  ZINC000482139334    0.2200
     34 H34        -7.3683    2.7415   49.6714 H       1  ZINC000482139334    0.1200
     35 H35        -5.6736    2.0236   49.5494 H       1  ZINC000482139334    0.1100
     36 H36        -5.1036    0.2362   51.1567 H       1  ZINC000482139334    0.0800
     37 H37        -5.3036    0.6741   52.8867 H       1  ZINC000482139334    0.0900
     38 H38        -6.9810   -1.1815   51.1709 H       1  ZINC000482139334    0.0800
     39 H39        -6.6018   -1.2938   52.9160 H       1  ZINC000482139334    0.0800
     40 H40        -9.4408   -1.4201   53.2247 H       1  ZINC000482139334    0.1200
     41 H41       -11.3313    0.1078   53.6023 H       1  ZINC000482139334    0.1300
     42 H42       -11.1223    2.4915   53.0171 H       1  ZINC000482139334    0.1300
     43 H43        -9.0236    3.3416   52.0569 H       1  ZINC000482139334    0.1200
@<TRIPOS>BOND
     1     1     2    2
     2     2     3   am
     3     2    16    1
     4     3     4    1
     5     3    28    1
     6     4    15    1
     7     4     5    2
     8     5     6    1
     9     6     7    1
    10     6    14    2
    11     7    12   ar
    12     7     8   ar
    13     8     9   ar
    14     8    29    1
    15     9    10   ar
    16     9    30    1
    17    10    11   ar
    18    10    31    1
    19    11    12   ar
    20    11    32    1
    21    12    13    1
    22    14    15    1
    23    14    33    1
    24    16    17    1
    25    16    19    1
    26    16    18    1
    27    18    19    1
    28    18    34    1
    29    18    35    1
    30    19    27    1
    31    19    20    1
    32    20    21    1
    33    20    36    1
    34    20    37    1
    35    21    22    1
    36    21    38    1
    37    21    39    1
    38    22    27   ar
    39    22    23   ar
    40    23    24   ar
    41    23    40    1
    42    24    25   ar
    43    24    41    1
    44    25    26   ar
    45    25    42    1
    46    26    27   ar
    47    26    43    1
@<TRIPOS>SUBSTRUCTURE
     1 ZINC000482139334        1 TEMP              0 ****  ****    0 ROOT


##########                                Name:    ZINC000409064708
##########                DOCK_Rotatable_Bonds:                   8
##########                         Heavy_Atoms:                  29
##########                    Molecular_Weight:             415.442
##########                DOCK_Rotatable_Bonds:                   8
##########                       Formal_Charge:                0.03
##########                     HBond_Acceptors:                   8
##########                        HBond_Donors:                   0
##########                         Heavy_Atoms:                  29
##########                          Grid_Score:          -30.278326
##########                     Grid_vdw_energy:          -30.685797
##########                      Grid_es_energy:            0.407471
##########           Internal_energy_repulsive:           23.071638

@<TRIPOS>MOLECULE
ZINC000409064708
 47 49 1 0 0
SMALL
USER_CHARGES


@<TRIPOS>ATOM
      1 C1         -6.1966   -1.0083   52.5778 C.3     1  ZINC000409064708    0.0400
      2 O2         -5.3576   -0.0367   51.8991 O.3     1  ZINC000409064708   -0.3500
      3 C3         -5.8439    1.2083   51.7766 C.2     1  ZINC000409064708    0.4600
      4 O4         -6.8593    1.5198   52.3525 O.2     1  ZINC000409064708   -0.4900
      5 C5         -5.1231    2.2179   50.9208 C.3     1  ZINC000409064708    0.1400
      6 H6         -5.0046    1.8209   49.9126 H       1  ZINC000409064708    0.1500
      7 C7         -5.9354    3.5133   50.8666 C.3     1  ZINC000409064708   -0.1600
      8 N8         -3.8038    2.4923   51.4957 N.am    1  ZINC000409064708   -0.5600
      9 C9         -3.6951    2.9219   52.7582 C.2     1  ZINC000409064708    0.5400
     10 O10        -4.6084    3.1253   53.5354 O.2     1  ZINC000409064708   -0.4200
     11 S11        -1.9660    3.1370   53.0817 S.3     1  ZINC000409064708   -0.0100
     12 C12        -1.4542    2.6257   51.4609 C.2     1  ZINC000409064708   -0.2400
     13 C13        -0.1908    2.5397   50.9727 C.2     1  ZINC000409064708    0.0900
     14 C14         0.9512    2.8950   51.8247 C.ar    1  ZINC000409064708   -0.1400
     15 C15         0.9572    4.1098   52.5213 C.ar    1  ZINC000409064708    0.0000
     16 C16         2.0306    4.4378   53.3186 C.ar    1  ZINC000409064708   -0.1600
     17 C17         3.1073    3.5659   53.4323 C.ar    1  ZINC000409064708    0.1600
     18 O18         4.1632    3.8944   54.2200 O.3     1  ZINC000409064708   -0.3000
     19 C19         3.8751    4.5924   55.4332 C.3     1  ZINC000409064708    0.1000
     20 C20         3.2332    3.6476   56.4162 C.ar    1  ZINC000409064708   -0.0700
     21 C21         4.0201    2.8098   57.1839 C.ar    1  ZINC000409064708   -0.1000
     22 C22         3.4326    1.9423   58.0862 C.ar    1  ZINC000409064708   -0.0900
     23 C23         2.0577    1.9121   58.2214 C.ar    1  ZINC000409064708   -0.1400
     24 C24         1.2683    2.7513   57.4531 C.ar    1  ZINC000409064708    0.1000
     25 F25        -0.0760    2.7226   57.5844 F       1  ZINC000409064708   -0.1400
     26 C26         1.8580    3.6231   56.5538 C.ar    1  ZINC000409064708   -0.1300
     27 C27         3.1067    2.3587   52.7430 C.ar    1  ZINC000409064708   -0.2200
     28 C28         2.0358    2.0178   51.9479 C.ar    1  ZINC000409064708   -0.0400
     29 C29        -2.7114    2.3121   50.7724 C.2     1  ZINC000409064708    0.5600
     30 O30        -2.7466    1.9221   49.6200 O.2     1  ZINC000409064708   -0.4600
     31 H31        -6.3945   -0.6698   53.5949 H       1  ZINC000409064708    0.0700
     32 H32        -7.1389   -1.1133   52.0401 H       1  ZINC000409064708    0.0700
     33 H33        -5.6863   -1.9709   52.6081 H       1  ZINC000409064708    0.1100
     34 H34        -6.9169    3.3091   50.4389 H       1  ZINC000409064708    0.1000
     35 H35        -6.0539    3.9103   51.8749 H       1  ZINC000409064708    0.0800
     36 H36        -5.4141    4.2435   50.2477 H       1  ZINC000409064708    0.0800
     37 H37        -0.0253    2.2101   49.9576 H       1  ZINC000409064708    0.1600
     38 H38         0.1216    4.7882   52.4330 H       1  ZINC000409064708    0.1300
     39 H39         2.0362    5.3743   53.8563 H       1  ZINC000409064708    0.1400
     40 H40         4.8006    4.9831   55.8561 H       1  ZINC000409064708    0.0800
     41 H41         3.1940    5.4175   55.2247 H       1  ZINC000409064708    0.0800
     42 H42         5.0947    2.8325   57.0787 H       1  ZINC000409064708    0.1300
     43 H43         4.0483    1.2879   58.6852 H       1  ZINC000409064708    0.1400
     44 H44         1.5989    1.2339   58.9257 H       1  ZINC000409064708    0.1400
     45 H45         1.2434    4.2783   55.9543 H       1  ZINC000409064708    0.1400
     46 H46         3.9459    1.6853   52.8348 H       1  ZINC000409064708    0.1300
     47 H47         2.0363    1.0796   51.4128 H       1  ZINC000409064708    0.1300
@<TRIPOS>BOND
     1     1     2    1
     2     1    31    1
     3     1    32    1
     4     1    33    1
     5     2     3    1
     6     3     4    2
     7     3     5    1
     8     5     6    1
     9     5     7    1
    10     5     8    1
    11     7    34    1
    12     7    35    1
    13     7    36    1
    14     8    29   am
    15     8     9   am
    16     9    10    2
    17     9    11    1
    18    11    12    1
    19    12    13    2
    20    12    29    1
    21    13    14    1
    22    13    37    1
    23    14    28   ar
    24    14    15   ar
    25    15    16   ar
    26    15    38    1
    27    16    17   ar
    28    16    39    1
    29    17    18    1
    30    17    27   ar
    31    18    19    1
    32    19    20    1
    33    19    40    1
    34    19    41    1
    35    20    26   ar
    36    20    21   ar
    37    21    22   ar
    38    21    42    1
    39    22    23   ar
    40    22    43    1
    41    23    24   ar
    42    23    44    1
    43    24    25    1
    44    24    26   ar
    45    26    45    1
    46    27    28   ar
    47    27    46    1
    48    28    47    1
    49    29    30    2
@<TRIPOS>SUBSTRUCTURE
     1 ZINC000409064708        1 TEMP              0 ****  ****    0 ROOT


##########                                Name:    ZINC000065993627
##########                DOCK_Rotatable_Bonds:                   7
##########                         Heavy_Atoms:                  28
##########                    Molecular_Weight:             382.462
##########                DOCK_Rotatable_Bonds:                   7
##########                       Formal_Charge:          -0.0200002
##########                     HBond_Acceptors:                   7
##########                        HBond_Donors:                   2
##########                         Heavy_Atoms:                  28
##########                          Grid_Score:          -30.273687
##########                     Grid_vdw_energy:          -30.650923
##########                      Grid_es_energy:            0.377236
##########           Internal_energy_repulsive:           42.809502

@<TRIPOS>MOLECULE
ZINC000065993627
 54 56 1 0 0
SMALL
USER_CHARGES


@<TRIPOS>ATOM
      1 C1         -2.0068    3.3555   52.8705 C.3     1  ZINC000065993627   -0.1200
      2 C2         -1.3057    2.8155   51.6508 C.ar    1  ZINC000065993627   -0.0700
      3 C3          0.0707    2.7108   51.6357 C.ar    1  ZINC000065993627   -0.1800
      4 C4          0.7170    2.2130   50.5114 C.ar    1  ZINC000065993627    0.2000
      5 N5          2.1120    2.1065   50.4959 N.pl3   1  ZINC000065993627   -0.6400
      6 C6          2.7512    0.8166   50.7676 C.3     1  ZINC000065993627    0.1000
      7 C7          2.9335    3.2848   50.2080 C.3     1  ZINC000065993627    0.0900
      8 C8         -0.0217    1.8209   49.4029 C.ar    1  ZINC000065993627   -0.1800
      9 C9         -1.3985    1.9258   49.4185 C.ar    1  ZINC000065993627   -0.0800
     10 C10        -2.0445    2.4180   50.5443 C.ar    1  ZINC000065993627    0.1100
     11 N11        -3.4424    2.5240   50.5601 N.am    1  ZINC000065993627   -0.6800
     12 C12        -4.1793    1.6194   51.2347 C.2     1  ZINC000065993627    0.7000
     13 O13        -3.6318    0.7112   51.8296 O.2     1  ZINC000065993627   -0.5700
     14 N14        -5.5231    1.7214   51.2498 N.am    1  ZINC000065993627   -0.7400
     15 C15        -6.3240    0.7390   51.9846 C.3     1  ZINC000065993627    0.2100
     16 H16        -5.8632    0.5461   52.9533 H       1  ZINC000065993627    0.1000
     17 C17        -6.3937   -0.5632   51.1844 C.3     1  ZINC000065993627   -0.1600
     18 C18        -7.7165    1.2780   52.1890 C.ar    1  ZINC000065993627   -0.1200
     19 C19        -8.7123    0.4502   52.6739 C.ar    1  ZINC000065993627   -0.0800
     20 C20        -9.9895    0.9410   52.8623 C.ar    1  ZINC000065993627   -0.1500
     21 C21       -10.2730    2.2673   52.5642 C.ar    1  ZINC000065993627    0.1800
     22 N22       -11.5660    2.7679   52.7543 N.am    1  ZINC000065993627   -0.5700
     23 C23       -11.9997    4.1454   52.4749 C.3     1  ZINC000065993627    0.0600
     24 C24       -13.4920    4.1452   52.8584 C.3     1  ZINC000065993627    0.0400
     25 O25       -13.7403    2.7821   53.3092 O.3     1  ZINC000065993627   -0.3200
     26 C26       -12.6122    2.0689   53.2154 C.2     1  ZINC000065993627    0.6400
     27 O27       -12.5407    0.8970   53.5283 O.2     1  ZINC000065993627   -0.5000
     28 C28        -9.2707    3.0960   52.0773 C.ar    1  ZINC000065993627   -0.1500
     29 C29        -7.9942    2.6006   51.8965 C.ar    1  ZINC000065993627   -0.0800
     30 H30        -2.2399    2.5347   53.5489 H       1  ZINC000065993627    0.0700
     31 H31        -1.3582    4.0712   53.3755 H       1  ZINC000065993627    0.0700
     32 H32        -2.9298    3.8511   52.5695 H       1  ZINC000065993627    0.0600
     33 H33         0.6451    3.0162   52.4977 H       1  ZINC000065993627    0.1200
     34 H34         2.8813    0.2715   49.8327 H       1  ZINC000065993627    0.0500
     35 H35         3.7243    0.9834   51.2295 H       1  ZINC000065993627    0.0700
     36 H36         2.1234    0.2351   51.4429 H       1  ZINC000065993627    0.0700
     37 H37         2.2925    4.1622   50.1212 H       1  ZINC000065993627    0.0800
     38 H38         3.6484    3.4357   51.0167 H       1  ZINC000065993627    0.0500
     39 H39         3.4707    3.1333   49.2717 H       1  ZINC000065993627    0.0500
     40 H40         0.4806    1.4342   48.5285 H       1  ZINC000065993627    0.1300
     41 H41        -1.9731    1.6209   48.5563 H       1  ZINC000065993627    0.1500
     42 H42        -3.8792    3.2485   50.0856 H       1  ZINC000065993627    0.4000
     43 H43        -5.9600    2.4451   50.7742 H       1  ZINC000065993627    0.4000
     44 H44        -5.3865   -0.9531   51.0366 H       1  ZINC000065993627    0.0700
     45 H45        -6.9895   -1.2941   51.7311 H       1  ZINC000065993627    0.0700
     46 H46        -6.8544   -0.3703   50.2156 H       1  ZINC000065993627    0.0600
     47 H47        -8.4913   -0.5814   52.9052 H       1  ZINC000065993627    0.1300
     48 H48       -10.7670    0.2940   53.2407 H       1  ZINC000065993627    0.1600
     49 H49       -11.4460    4.8537   53.0912 H       1  ZINC000065993627    0.1000
     50 H50       -11.8762    4.3785   51.4173 H       1  ZINC000065993627    0.1000
     51 H51       -13.6795    4.8544   53.6647 H       1  ZINC000065993627    0.1100
     52 H52       -14.1095    4.3793   51.9912 H       1  ZINC000065993627    0.1100
     53 H53        -9.4881    4.1279   51.8442 H       1  ZINC000065993627    0.1300
     54 H54        -7.2142    3.2447   51.5182 H       1  ZINC000065993627    0.1300
@<TRIPOS>BOND
     1     1     2    1
     2     1    30    1
     3     1    31    1
     4     1    32    1
     5     2    10   ar
     6     2     3   ar
     7     3     4   ar
     8     3    33    1
     9     4     5    1
    10     4     8   ar
    11     5     6    1
    12     5     7    1
    13     6    34    1
    14     6    35    1
    15     6    36    1
    16     7    37    1
    17     7    38    1
    18     7    39    1
    19     8     9   ar
    20     8    40    1
    21     9    10   ar
    22     9    41    1
    23    10    11    1
    24    11    12   am
    25    11    42    1
    26    12    13    2
    27    12    14   am
    28    14    15    1
    29    14    43    1
    30    15    16    1
    31    15    17    1
    32    15    18    1
    33    17    44    1
    34    17    45    1
    35    17    46    1
    36    18    29   ar
    37    18    19   ar
    38    19    20   ar
    39    19    47    1
    40    20    21   ar
    41    20    48    1
    42    21    22    1
    43    21    28   ar
    44    22    26   am
    45    22    23    1
    46    23    24    1
    47    23    49    1
    48    23    50    1
    49    24    25    1
    50    24    51    1
    51    24    52    1
    52    25    26    1
    53    26    27    2
    54    28    29   ar
    55    28    53    1
    56    29    54    1
@<TRIPOS>SUBSTRUCTURE
     1 ZINC000065993627        1 TEMP              0 ****  ****    0 ROOT


##########                                Name:    ZINC000547864253
##########                DOCK_Rotatable_Bonds:                   6
##########                         Heavy_Atoms:                  30
##########                    Molecular_Weight:             422.548
##########                DOCK_Rotatable_Bonds:                   6
##########                       Formal_Charge:           0.0300002
##########                     HBond_Acceptors:                   6
##########                        HBond_Donors:                   2
##########                         Heavy_Atoms:                  30
##########                          Grid_Score:          -30.272600
##########                     Grid_vdw_energy:          -27.970171
##########                      Grid_es_energy:           -2.302429
##########           Internal_energy_repulsive:           10.496728

@<TRIPOS>MOLECULE
ZINC000547864253
 56 60 1 0 0
SMALL
USER_CHARGES


@<TRIPOS>ATOM
      1 O1        -11.0169   -2.7860   59.1224 O.2     1  ZINC000547864253   -0.5300
      2 C2        -11.3272   -2.0008   58.2518 C.2     1  ZINC000547864253    0.5400
      3 N3        -10.6662   -0.8324   58.1314 N.am    1  ZINC000547864253   -0.7200
      4 C4         -9.5769   -0.5084   59.0559 C.3     1  ZINC000547864253    0.1300
      5 C5        -10.1413    0.2342   60.2687 C.3     1  ZINC000547864253    0.0200
      6 H6        -11.0764   -0.2328   60.5779 H       1  ZINC000547864253    0.0900
      7 C7         -9.1500    0.1719   61.4020 C.2     1  ZINC000547864253   -0.1600
      8 C8         -7.8405   -0.1066   61.3029 C.2     1  ZINC000547864253    0.0600
      9 N9         -7.2612   -0.0722   62.5421 N.pl3   1  ZINC000547864253   -0.5900
     10 C10        -8.2078    0.2371   63.4931 C.ar    1  ZINC000547864253    0.1000
     11 C11        -8.1614    0.3970   64.8739 C.ar    1  ZINC000547864253   -0.1300
     12 C12        -9.3103    0.7151   65.5649 C.ar    1  ZINC000547864253   -0.1000
     13 C13       -10.5158    0.8782   64.8970 C.ar    1  ZINC000547864253   -0.1400
     14 C14       -10.5841    0.7258   63.5406 C.ar    1  ZINC000547864253   -0.0700
     15 C15        -9.4312    0.4098   62.8198 C.ar    1  ZINC000547864253   -0.1000
     16 C16       -10.3959    1.6737   59.9026 C.ar    1  ZINC000547864253   -0.0700
     17 C17        -9.3349    2.5476   59.7562 C.ar    1  ZINC000547864253   -0.1100
     18 C18        -9.5683    3.8681   59.4204 C.ar    1  ZINC000547864253   -0.1200
     19 C19       -10.8628    4.3146   59.2306 C.ar    1  ZINC000547864253   -0.1200
     20 C20       -11.9237    3.4404   59.3761 C.ar    1  ZINC000547864253   -0.1100
     21 C21       -11.6900    2.1190   59.7077 C.ar    1  ZINC000547864253   -0.1200
     22 C22       -12.4477   -2.3341   57.3008 C.3     1  ZINC000547864253   -0.1700
     23 H23       -12.2599   -3.1709   56.6280 H       1  ZINC000547864253    0.1400
     24 C24       -13.2897   -1.1738   56.7671 C.3     1  ZINC000547864253   -0.1300
     25 C25       -13.8814   -2.1368   57.8006 C.3     1  ZINC000547864253   -0.1400
     26 C26       -14.9379   -3.1293   57.3136 C.3     1  ZINC000547864253   -0.0700
     27 C27       -16.3006   -2.4372   57.2395 C.3     1  ZINC000547864253   -0.6000
     28 S28       -16.7642   -1.8523   58.8945 S.o2    1  ZINC000547864253    2.4200
     29 O29       -17.9233   -1.0382   58.7802 O.2     1  ZINC000547864253   -0.9400
     30 O30       -16.7800   -2.9631   59.7807 O.2     1  ZINC000547864253   -0.9300
     31 C31       -15.3508   -0.7931   59.3150 C.3     1  ZINC000547864253   -0.6000
     32 C32       -14.0625   -1.6142   59.2264 C.3     1  ZINC000547864253   -0.0700
     33 H33       -10.9117   -0.2061   57.4326 H       1  ZINC000547864253    0.4000
     34 H34        -9.0943   -1.4284   59.3854 H       1  ZINC000547864253    0.0800
     35 H35        -8.8471    0.1239   58.5502 H       1  ZINC000547864253    0.0700
     36 H36        -7.3212   -0.3257   60.3817 H       1  ZINC000547864253    0.1700
     37 H37        -6.3233   -0.2406   62.7237 H       1  ZINC000547864253    0.4200
     38 H38        -7.2281    0.2718   65.4028 H       1  ZINC000547864253    0.1200
     39 H39        -9.2723    0.8384   66.6372 H       1  ZINC000547864253    0.1300
     40 H40       -11.4072    1.1271   65.4536 H       1  ZINC000547864253    0.1200
     41 H41       -11.5258    0.8542   63.0276 H       1  ZINC000547864253    0.1200
     42 H42        -8.3235    2.1988   59.9046 H       1  ZINC000547864253    0.1200
     43 H43        -8.7394    4.5511   59.3067 H       1  ZINC000547864253    0.1200
     44 H44       -11.0452    5.3464   58.9689 H       1  ZINC000547864253    0.1200
     45 H45       -12.9351    3.7893   59.2281 H       1  ZINC000547864253    0.1200
     46 H46       -12.5188    1.4360   59.8213 H       1  ZINC000547864253    0.1200
     47 H47       -13.0333   -0.1693   57.1037 H       1  ZINC000547864253    0.1100
     48 H48       -13.6562   -1.2473   55.7432 H       1  ZINC000547864253    0.1100
     49 H49       -14.6629   -3.4956   56.3245 H       1  ZINC000547864253    0.0900
     50 H50       -14.9945   -3.9682   58.0073 H       1  ZINC000547864253    0.0900
     51 H51       -16.2418   -1.5894   56.5569 H       1  ZINC000547864253    0.1400
     52 H52       -17.0489   -3.1437   56.8801 H       1  ZINC000547864253    0.1400
     53 H53       -15.2999    0.0410   58.6152 H       1  ZINC000547864253    0.1400
     54 H54       -15.4705   -0.4117   60.3292 H       1  ZINC000547864253    0.1400
     55 H55       -14.1209   -2.4559   59.9165 H       1  ZINC000547864253    0.0900
     56 H56       -13.2129   -0.9856   59.4930 H       1  ZINC000547864253    0.0900
@<TRIPOS>BOND
     1     1     2    2
     2     2     3   am
     3     2    22    1
     4     3     4    1
     5     3    33    1
     6     4     5    1
     7     4    34    1
     8     4    35    1
     9     5     6    1
    10     5     7    1
    11     5    16    1
    12     7    15    1
    13     7     8    2
    14     8     9    1
    15     8    36    1
    16     9    10    1
    17     9    37    1
    18    10    15   ar
    19    10    11   ar
    20    11    12   ar
    21    11    38    1
    22    12    13   ar
    23    12    39    1
    24    13    14   ar
    25    13    40    1
    26    14    15   ar
    27    14    41    1
    28    16    21   ar
    29    16    17   ar
    30    17    18   ar
    31    17    42    1
    32    18    19   ar
    33    18    43    1
    34    19    20   ar
    35    19    44    1
    36    20    21   ar
    37    20    45    1
    38    21    46    1
    39    22    23    1
    40    22    25    1
    41    22    24    1
    42    24    25    1
    43    24    47    1
    44    24    48    1
    45    25    32    1
    46    25    26    1
    47    26    27    1
    48    26    49    1
    49    26    50    1
    50    27    28    1
    51    27    51    1
    52    27    52    1
    53    28    29    2
    54    28    30    2
    55    28    31    1
    56    31    32    1
    57    31    53    1
    58    31    54    1
    59    32    55    1
    60    32    56    1
@<TRIPOS>SUBSTRUCTURE
     1 ZINC000547864253        1 TEMP              0 ****  ****    0 ROOT


##########                                Name:    ZINC000938043669
##########                DOCK_Rotatable_Bonds:                   7
##########                         Heavy_Atoms:                  27
##########                    Molecular_Weight:             372.439
##########                DOCK_Rotatable_Bonds:                   7
##########                       Formal_Charge:           0.0499999
##########                     HBond_Acceptors:                   6
##########                        HBond_Donors:                   1
##########                         Heavy_Atoms:                  27
##########                          Grid_Score:          -30.271832
##########                     Grid_vdw_energy:          -30.224876
##########                      Grid_es_energy:           -0.046955
##########           Internal_energy_repulsive:           20.637255

@<TRIPOS>MOLECULE
ZINC000938043669
 52 55 1 0 0
SMALL
USER_CHARGES


@<TRIPOS>ATOM
      1 O1         -6.2162    0.6113   51.2139 O.2     1  ZINC000938043669   -0.5000
      2 C2         -6.7755    1.6868   51.2510 C.2     1  ZINC000938043669    0.5300
      3 C3         -6.5016    2.7158   50.1845 C.3     1  ZINC000938043669    0.0500
      4 O4         -5.6468    3.7323   50.7118 O.3     1  ZINC000938043669   -0.2800
      5 C5         -4.3728    3.3697   51.0183 C.ar    1  ZINC000938043669    0.0900
      6 C6         -3.8289    2.2168   50.4739 C.ar    1  ZINC000938043669   -0.1800
      7 C7         -2.5333    1.8503   50.7863 C.ar    1  ZINC000938043669   -0.0900
      8 C8         -1.7789    2.6319   51.6411 C.ar    1  ZINC000938043669   -0.1300
      9 C9         -2.3178    3.7827   52.1869 C.ar    1  ZINC000938043669   -0.1100
     10 C10        -3.6116    4.1573   51.8733 C.ar    1  ZINC000938043669    0.0800
     11 F11        -4.1383    5.2814   52.4062 F       1  ZINC000938043669   -0.1300
     12 N12        -7.6464    1.9598   52.2428 N.am    1  ZINC000938043669   -0.6200
     13 C13        -8.3940    3.2151   52.4053 C.3     1  ZINC000938043669    0.1000
     14 C14        -9.2821    3.0607   53.6579 C.3     1  ZINC000938043669   -0.1400
     15 C15        -9.4081    1.5214   53.8070 C.3     1  ZINC000938043669    0.1300
     16 H16       -10.1883    1.1284   53.1552 H       1  ZINC000938043669    0.1100
     17 N17        -9.6551    1.1474   55.2017 N.am    1  ZINC000938043669   -0.7200
     18 C18       -10.1817   -0.0586   55.4928 C.2     1  ZINC000938043669    0.5200
     19 O19       -10.4496   -0.8348   54.6002 O.2     1  ZINC000938043669   -0.5200
     20 C20       -10.4375   -0.4427   56.9274 C.3     1  ZINC000938043669   -0.1000
     21 H21        -9.7082    0.0495   57.5706 H       1  ZINC000938043669    0.1000
     22 C22       -10.3093   -1.9601   57.0795 C.3     1  ZINC000938043669   -0.1100
     23 C23       -11.6373   -2.5395   57.5835 C.3     1  ZINC000938043669   -0.0600
     24 H24       -11.5843   -3.6262   57.6500 H       1  ZINC000938043669    0.0800
     25 C25       -12.7303   -2.1105   56.6160 C.2     1  ZINC000938043669   -0.1800
     26 C26       -12.8419   -0.7909   56.4837 C.2     1  ZINC000938043669   -0.1300
     27 C27       -11.8516   -0.0046   57.3294 C.3     1  ZINC000938043669   -0.0400
     28 H28       -11.9890    1.0676   57.1887 H       1  ZINC000938043669    0.0900
     29 C29       -12.0786   -0.3946   58.7964 C.3     1  ZINC000938043669   -0.1200
     30 C30       -11.9414   -1.9246   58.9567 C.3     1  ZINC000938043669   -0.1100
     31 C31        -8.0116    1.0465   53.3410 C.3     1  ZINC000938043669    0.1000
     32 H32        -6.0154    2.2373   49.3342 H       1  ZINC000938043669    0.1000
     33 H33        -7.4415    3.1631   49.8612 H       1  ZINC000938043669    0.1000
     34 H34        -4.4172    1.6051   49.8060 H       1  ZINC000938043669    0.1400
     35 H35        -2.1098    0.9518   50.3622 H       1  ZINC000938043669    0.1300
     36 H36        -0.7668    2.3430   51.8835 H       1  ZINC000938043669    0.1400
     37 H37        -1.7264    4.3913   52.8548 H       1  ZINC000938043669    0.1500
     38 H38        -7.7003    4.0447   52.5427 H       1  ZINC000938043669    0.0800
     39 H39        -9.0171    3.3916   51.5286 H       1  ZINC000938043669    0.0800
     40 H40        -8.7953    3.4942   54.5316 H       1  ZINC000938043669    0.0900
     41 H41       -10.2601    3.5138   53.4955 H       1  ZINC000938043669    0.1000
     42 H42        -9.4396    1.7677   55.9156 H       1  ZINC000938043669    0.4000
     43 H43       -10.0634   -2.4023   56.1140 H       1  ZINC000938043669    0.0700
     44 H44        -9.5189   -2.1878   57.7947 H       1  ZINC000938043669    0.0800
     45 H45       -13.3576   -2.8118   56.0857 H       1  ZINC000938043669    0.1200
     46 H46       -13.5675   -0.3219   55.8357 H       1  ZINC000938043669    0.1200
     47 H47       -11.3340    0.0971   59.4223 H       1  ZINC000938043669    0.0700
     48 H48       -13.0761   -0.0816   59.1052 H       1  ZINC000938043669    0.0700
     49 H49       -12.8766   -2.3351   59.3375 H       1  ZINC000938043669    0.0700
     50 H50       -11.1363   -2.1456   59.6572 H       1  ZINC000938043669    0.0700
     51 H51        -8.0606    0.0180   52.9832 H       1  ZINC000938043669    0.0900
     52 H52        -7.2909    1.1321   54.1542 H       1  ZINC000938043669    0.0700
@<TRIPOS>BOND
     1     1     2    2
     2     2     3    1
     3     2    12   am
     4     3     4    1
     5     3    32    1
     6     3    33    1
     7     4     5    1
     8     5    10   ar
     9     5     6   ar
    10     6     7   ar
    11     6    34    1
    12     7     8   ar
    13     7    35    1
    14     8     9   ar
    15     8    36    1
    16     9    10   ar
    17     9    37    1
    18    10    11    1
    19    12    31    1
    20    12    13    1
    21    13    14    1
    22    13    38    1
    23    13    39    1
    24    14    15    1
    25    14    40    1
    26    14    41    1
    27    15    16    1
    28    15    17    1
    29    15    31    1
    30    17    18   am
    31    17    42    1
    32    18    19    2
    33    18    20    1
    34    20    21    1
    35    20    27    1
    36    20    22    1
    37    22    23    1
    38    22    43    1
    39    22    44    1
    40    23    24    1
    41    23    30    1
    42    23    25    1
    43    25    26    2
    44    25    45    1
    45    26    27    1
    46    26    46    1
    47    27    28    1
    48    27    29    1
    49    29    30    1
    50    29    47    1
    51    29    48    1
    52    30    49    1
    53    30    50    1
    54    31    51    1
    55    31    52    1
@<TRIPOS>SUBSTRUCTURE
     1 ZINC000938043669        1 TEMP              0 ****  ****    0 ROOT


##########                                Name:    ZINC000517001504
##########                DOCK_Rotatable_Bonds:                   5
##########                         Heavy_Atoms:                  29
##########                    Molecular_Weight:             403.401
##########                DOCK_Rotatable_Bonds:                   5
##########                       Formal_Charge:          -0.0200002
##########                     HBond_Acceptors:                   7
##########                        HBond_Donors:                   0
##########                         Heavy_Atoms:                  29
##########                          Grid_Score:          -30.258982
##########                     Grid_vdw_energy:          -29.166668
##########                      Grid_es_energy:           -1.092313
##########           Internal_energy_repulsive:           32.668259

@<TRIPOS>MOLECULE
ZINC000517001504
 49 52 1 0 0
SMALL
USER_CHARGES


@<TRIPOS>ATOM
      1 O1         -5.5171    5.1517   52.8582 O.2     1  ZINC000517001504   -0.5200
      2 C2         -6.1163    4.2081   52.3874 C.2     1  ZINC000517001504    0.5400
      3 N3         -5.4761    3.3367   51.5828 N.am    1  ZINC000517001504   -0.6100
      4 C4         -6.1806    2.1813   51.0048 C.3     1  ZINC000517001504    0.0600
      5 C5         -5.3523    0.9217   51.2826 C.3     1  ZINC000517001504    0.0500
      6 O6         -4.0099    1.1336   50.8390 O.3     1  ZINC000517001504   -0.3700
      7 C7         -3.3277    2.1885   51.5216 C.3     1  ZINC000517001504    0.1200
      8 H8         -3.3217    1.9851   52.5924 H       1  ZINC000517001504    0.0800
      9 C9         -1.9101    2.2793   51.0184 C.ar    1  ZINC000517001504   -0.0600
     10 C10        -1.6059    1.8749   49.7320 C.ar    1  ZINC000517001504   -0.0900
     11 C11        -0.3056    1.9583   49.2706 C.ar    1  ZINC000517001504   -0.0700
     12 C12         0.6906    2.4465   50.0954 C.ar    1  ZINC000517001504   -0.1800
     13 C13         2.1084    2.5369   49.5924 C.3     1  ZINC000517001504    0.5100
     14 F14         2.9812    2.6628   50.6785 F       1  ZINC000517001504   -0.1800
     15 F15         2.4228    1.3789   48.8732 F       1  ZINC000517001504   -0.1800
     16 F16         2.2372    3.6530   48.7589 F       1  ZINC000517001504   -0.1800
     17 C17         0.3863    2.8521   51.3813 C.ar    1  ZINC000517001504   -0.0700
     18 C18        -0.9149    2.7724   51.8415 C.ar    1  ZINC000517001504   -0.1000
     19 C19        -4.0537    3.5162   51.2515 C.3     1  ZINC000517001504    0.0900
     20 C20        -7.5751    4.0066   52.7071 C.3     1  ZINC000517001504   -0.0600
     21 C21        -8.4648    4.1484   51.4991 C.ar    1  ZINC000517001504   -0.0700
     22 C22        -7.9438    4.6192   50.3084 C.ar    1  ZINC000517001504   -0.1200
     23 C23        -8.7600    4.7492   49.2003 C.ar    1  ZINC000517001504   -0.1100
     24 C24       -10.0970    4.4080   49.2827 C.ar    1  ZINC000517001504   -0.1100
     25 C25       -10.6177    3.9363   50.4732 C.ar    1  ZINC000517001504   -0.1100
     26 C26        -9.8007    3.8022   51.5801 C.ar    1  ZINC000517001504   -0.1000
     27 C27        -7.8561    2.7430   53.5384 C.3     1  ZINC000517001504   -0.1600
     28 C28        -7.6638    3.6119   54.7655 C.2     1  ZINC000517001504    0.3600
     29 O29        -7.3383    3.4280   55.9137 O.2     1  ZINC000517001504   -0.4100
     30 C30        -8.0568    4.8116   53.9265 C.3     1  ZINC000517001504   -0.1900
     31 H31        -7.1638    2.0831   51.4649 H       1  ZINC000517001504    0.1000
     32 H32        -6.2902    2.3187   49.9291 H       1  ZINC000517001504    0.0800
     33 H33        -5.3536    0.7137   52.3526 H       1  ZINC000517001504    0.0600
     34 H34        -5.7838    0.0766   50.7463 H       1  ZINC000517001504    0.1100
     35 H35        -2.3842    1.4936   49.0877 H       1  ZINC000517001504    0.1400
     36 H36        -0.0678    1.6416   48.2657 H       1  ZINC000517001504    0.1400
     37 H37         1.1645    3.2339   52.0255 H       1  ZINC000517001504    0.1400
     38 H38        -1.1526    3.0893   52.8462 H       1  ZINC000517001504    0.1400
     39 H39        -3.9470    3.7857   50.2008 H       1  ZINC000517001504    0.0800
     40 H40        -3.6287    4.3008   51.8773 H       1  ZINC000517001504    0.1100
     41 H41        -6.8993    4.8859   50.2440 H       1  ZINC000517001504    0.1300
     42 H42        -8.3531    5.1178   48.2702 H       1  ZINC000517001504    0.1300
     43 H43       -10.7348    4.5103   48.4173 H       1  ZINC000517001504    0.1300
     44 H44       -11.6624    3.6699   50.5378 H       1  ZINC000517001504    0.1300
     45 H45       -10.2075    3.4336   52.5102 H       1  ZINC000517001504    0.1200
     46 H46        -8.8714    2.3624   53.4265 H       1  ZINC000517001504    0.1300
     47 H47        -7.0972    1.9685   53.4274 H       1  ZINC000517001504    0.1100
     48 H48        -7.4593    5.7008   54.1276 H       1  ZINC000517001504    0.1000
     49 H49        -9.1283    5.0113   53.9234 H       1  ZINC000517001504    0.1400
@<TRIPOS>BOND
     1     1     2    2
     2     2     3   am
     3     2    20    1
     4     3    19    1
     5     3     4    1
     6     4     5    1
     7     4    31    1
     8     4    32    1
     9     5     6    1
    10     5    33    1
    11     5    34    1
    12     6     7    1
    13     7     8    1
    14     7     9    1
    15     7    19    1
    16     9    18   ar
    17     9    10   ar
    18    10    11   ar
    19    10    35    1
    20    11    12   ar
    21    11    36    1
    22    12    13    1
    23    12    17   ar
    24    13    14    1
    25    13    15    1
    26    13    16    1
    27    17    18   ar
    28    17    37    1
    29    18    38    1
    30    19    39    1
    31    19    40    1
    32    20    30    1
    33    20    21    1
    34    20    27    1
    35    21    26   ar
    36    21    22   ar
    37    22    23   ar
    38    22    41    1
    39    23    24   ar
    40    23    42    1
    41    24    25   ar
    42    24    43    1
    43    25    26   ar
    44    25    44    1
    45    26    45    1
    46    27    28    1
    47    27    46    1
    48    27    47    1
    49    28    29    2
    50    28    30    1
    51    30    48    1
    52    30    49    1
@<TRIPOS>SUBSTRUCTURE
     1 ZINC000517001504        1 TEMP              0 ****  ****    0 ROOT


##########                                Name:    ZINC000790205345
##########                DOCK_Rotatable_Bonds:                   7
##########                         Heavy_Atoms:                  28
##########                    Molecular_Weight:             382.459
##########                DOCK_Rotatable_Bonds:                   7
##########                       Formal_Charge:          -0.0299997
##########                     HBond_Acceptors:                   6
##########                        HBond_Donors:                   0
##########                         Heavy_Atoms:                  28
##########                          Grid_Score:          -30.252569
##########                     Grid_vdw_energy:          -30.073090
##########                      Grid_es_energy:           -0.179480
##########           Internal_energy_repulsive:           50.397865

@<TRIPOS>MOLECULE
ZINC000790205345
 54 56 1 0 0
SMALL
USER_CHARGES


@<TRIPOS>ATOM
      1 C1         -9.1683    0.2892   53.1763 C.3     1  ZINC000790205345   -0.1100
      2 C2         -7.8029    0.6647   52.6607 C.ar    1  ZINC000790205345   -0.1300
      3 C3         -6.9685   -0.3091   52.1445 C.ar    1  ZINC000790205345   -0.0800
      4 C4         -5.7164    0.0325   51.6707 C.ar    1  ZINC000790205345   -0.2100
      5 C5         -5.2968    1.3539   51.7134 C.ar    1  ZINC000790205345    0.1300
      6 O6         -4.0659    1.6927   51.2475 O.3     1  ZINC000790205345   -0.2900
      7 C7         -3.4492    2.8460   51.8235 C.3     1  ZINC000790205345    0.0400
      8 C8         -1.9537    2.7474   51.6659 C.2     1  ZINC000790205345    0.5200
      9 O9         -1.4758    1.9187   50.9204 O.2     1  ZINC000790205345   -0.5100
     10 N10        -1.1472    3.5799   52.3536 N.am    1  ZINC000790205345   -0.6100
     11 C11         0.3065    3.4851   52.1990 C.3     1  ZINC000790205345    0.0700
     12 C12        -1.7242    4.5797   53.2555 C.3     1  ZINC000790205345    0.1800
     13 H13        -2.7637    4.7600   52.9809 H       1  ZINC000790205345    0.1200
     14 C14        -0.9335    5.8847   53.1433 C.3     1  ZINC000790205345   -0.1600
     15 C15        -1.6599    4.0737   54.6736 C.ar    1  ZINC000790205345   -0.0700
     16 C16        -2.8073    3.6209   55.2980 C.ar    1  ZINC000790205345   -0.1300
     17 C17        -2.7525    3.1563   56.5995 C.ar    1  ZINC000790205345   -0.0900
     18 C18        -1.5505    3.1429   57.2793 C.ar    1  ZINC000790205345   -0.1500
     19 C19        -0.3961    3.5966   56.6547 C.ar    1  ZINC000790205345    0.1800
     20 N20         0.8237    3.5840   57.3409 N.am    1  ZINC000790205345   -0.5700
     21 C21         1.0246    3.1133   58.7199 C.3     1  ZINC000790205345    0.0600
     22 C22         2.5320    3.3210   58.9626 C.3     1  ZINC000790205345    0.0400
     23 O23         3.0174    3.8811   57.7081 O.3     1  ZINC000790205345   -0.3200
     24 C24         2.0001    3.9934   56.8466 C.2     1  ZINC000790205345    0.6400
     25 O25         2.1295    4.4339   55.7216 O.2     1  ZINC000790205345   -0.5000
     26 C26        -0.4535    4.0577   55.3462 C.ar    1  ZINC000790205345   -0.1400
     27 C27        -6.1362    2.3296   52.2320 C.ar    1  ZINC000790205345   -0.1500
     28 C28        -7.3891    1.9836   52.6995 C.ar    1  ZINC000790205345   -0.0500
     29 C29        -8.3015    3.0427   53.2624 C.3     1  ZINC000790205345   -0.1200
     30 H30        -9.8928    0.3503   52.3642 H       1  ZINC000790205345    0.0700
     31 H31        -9.1427   -0.7289   53.5647 H       1  ZINC000790205345    0.0600
     32 H32        -9.4569    0.9748   53.9730 H       1  ZINC000790205345    0.0700
     33 H33        -7.2955   -1.3380   52.1119 H       1  ZINC000790205345    0.1300
     34 H34        -5.0647   -0.7287   51.2680 H       1  ZINC000790205345    0.1300
     35 H35        -3.8095    3.7417   51.3174 H       1  ZINC000790205345    0.1000
     36 H36        -3.7001    2.9014   52.8828 H       1  ZINC000790205345    0.0900
     37 H37         0.6171    4.0575   51.3250 H       1  ZINC000790205345    0.0600
     38 H38         0.7933    3.8865   53.0879 H       1  ZINC000790205345    0.0800
     39 H39         0.5908    2.4409   52.0693 H       1  ZINC000790205345    0.0700
     40 H40         0.1059    5.7045   53.4179 H       1  ZINC000790205345    0.0600
     41 H41        -0.9801    6.2507   52.1177 H       1  ZINC000790205345    0.0700
     42 H42        -1.3629    6.6286   53.8144 H       1  ZINC000790205345    0.0800
     43 H43        -3.7485    3.6303   54.7684 H       1  ZINC000790205345    0.1300
     44 H44        -3.6506    2.8038   57.0847 H       1  ZINC000790205345    0.1300
     45 H45        -1.5084    2.7803   58.2957 H       1  ZINC000790205345    0.1300
     46 H46         0.4385    3.7112   59.4177 H       1  ZINC000790205345    0.1000
     47 H47         0.7647    2.0583   58.8060 H       1  ZINC000790205345    0.1000
     48 H48         2.6941    4.0215   59.7818 H       1  ZINC000790205345    0.1100
     49 H49         3.0203    2.3689   59.1703 H       1  ZINC000790205345    0.1100
     50 H50         0.4426    4.4110   54.8577 H       1  ZINC000790205345    0.1600
     51 H51        -5.8118    3.3591   52.2665 H       1  ZINC000790205345    0.1300
     52 H52        -8.9147    3.4569   52.4620 H       1  ZINC000790205345    0.0700
     53 H53        -8.9460    2.6006   54.0222 H       1  ZINC000790205345    0.0700
     54 H54        -7.7037    3.8367   53.7101 H       1  ZINC000790205345    0.0700
@<TRIPOS>BOND
     1     1     2    1
     2     1    30    1
     3     1    31    1
     4     1    32    1
     5     2    28   ar
     6     2     3   ar
     7     3     4   ar
     8     3    33    1
     9     4     5   ar
    10     4    34    1
    11     5     6    1
    12     5    27   ar
    13     6     7    1
    14     7     8    1
    15     7    35    1
    16     7    36    1
    17     8     9    2
    18     8    10   am
    19    10    11    1
    20    10    12    1
    21    11    37    1
    22    11    38    1
    23    11    39    1
    24    12    13    1
    25    12    14    1
    26    12    15    1
    27    14    40    1
    28    14    41    1
    29    14    42    1
    30    15    26   ar
    31    15    16   ar
    32    16    17   ar
    33    16    43    1
    34    17    18   ar
    35    17    44    1
    36    18    19   ar
    37    18    45    1
    38    19    20    1
    39    19    26   ar
    40    20    24   am
    41    20    21    1
    42    21    22    1
    43    21    46    1
    44    21    47    1
    45    22    23    1
    46    22    48    1
    47    22    49    1
    48    23    24    1
    49    24    25    2
    50    26    50    1
    51    27    28   ar
    52    27    51    1
    53    28    29    1
    54    29    52    1
    55    29    53    1
    56    29    54    1
@<TRIPOS>SUBSTRUCTURE
     1 ZINC000790205345        1 TEMP              0 ****  ****    0 ROOT


##########                                Name:    ZINC000271662144
##########                DOCK_Rotatable_Bonds:                   8
##########                         Heavy_Atoms:                  26
##########                    Molecular_Weight:             390.402
##########                DOCK_Rotatable_Bonds:                   8
##########                       Formal_Charge:          0.00999944
##########                     HBond_Acceptors:                   9
##########                        HBond_Donors:                   3
##########                         Heavy_Atoms:                  26
##########                          Grid_Score:          -30.248102
##########                     Grid_vdw_energy:          -28.892675
##########                      Grid_es_energy:           -1.355427
##########           Internal_energy_repulsive:           29.897570

@<TRIPOS>MOLECULE
ZINC000271662144
 44 45 1 0 0
SMALL
USER_CHARGES


@<TRIPOS>ATOM
      1 C1         -1.6575    2.2741   50.9290 C.3     1  ZINC000271662144   -0.1400
      2 C2         -2.4719    3.2237   51.8098 C.3     1  ZINC000271662144    0.1200
      3 H3         -2.1739    4.2524   51.6074 H       1  ZINC000271662144    0.0600
      4 N4         -2.2259    2.9118   53.2241 N.3     1  ZINC000271662144   -0.6700
      5 C5         -1.7290    4.0917   53.9445 C.3     1  ZINC000271662144    0.1300
      6 H6         -0.9330    4.5616   53.3668 H       1  ZINC000271662144    0.1100
      7 C7         -2.8730    5.0883   54.1413 C.3     1  ZINC000271662144   -0.2000
      8 C8         -2.4298    6.1893   55.1070 C.3     1  ZINC000271662144    0.4600
      9 F9         -1.3182    6.8539   54.5781 F       1  ZINC000271662144   -0.1800
     10 F10        -3.4759    7.1006   55.2870 F       1  ZINC000271662144   -0.1800
     11 F11        -2.0901    5.6199   56.3390 F       1  ZINC000271662144   -0.1700
     12 C12        -1.1928    3.6706   55.2885 C.ar    1  ZINC000271662144   -0.0900
     13 C13        -2.0484    3.1492   56.2410 C.ar    1  ZINC000271662144   -0.0600
     14 C14        -1.5579    2.7627   57.4738 C.ar    1  ZINC000271662144   -0.1600
     15 C15        -0.2088    2.8974   57.7546 C.ar    1  ZINC000271662144    0.1000
     16 F16         0.2719    2.5195   58.9593 F       1  ZINC000271662144   -0.1400
     17 C17         0.6473    3.4193   56.7997 C.ar    1  ZINC000271662144   -0.1500
     18 C18         0.1552    3.8007   55.5659 C.ar    1  ZINC000271662144   -0.0700
     19 C19        -3.9386    3.0565   51.5063 C.ar    1  ZINC000271662144   -0.1100
     20 C20        -4.6496    4.0964   50.9379 C.ar    1  ZINC000271662144   -0.0400
     21 C21        -5.9951    3.9430   50.6595 C.ar    1  ZINC000271662144   -0.1400
     22 C22        -6.6291    2.7495   50.9494 C.ar    1  ZINC000271662144   -0.0200
     23 C23        -5.9178    1.7089   51.5173 C.ar    1  ZINC000271662144   -0.6800
     24 S24        -6.7261    0.1877   51.8873 S.o2    1  ZINC000271662144    2.7000
     25 N25        -6.0182   -0.4237   53.2539 N.am    1  ZINC000271662144   -1.2500
     26 O26        -8.0619    0.5188   52.2411 O.2     1  ZINC000271662144   -0.9600
     27 O27        -6.4005   -0.7067   50.8323 O.2     1  ZINC000271662144   -0.9600
     28 C28        -4.5716    1.8608   51.7915 C.ar    1  ZINC000271662144   -0.0100
     29 H29        -0.5966    2.3950   51.1485 H       1  ZINC000271662144    0.0600
     30 H30        -1.9554    1.2453   51.1314 H       1  ZINC000271662144    0.0700
     31 H31        -1.8400    2.5055   49.8795 H       1  ZINC000271662144    0.0600
     32 H32        -3.0565    2.5435   53.6629 H       1  ZINC000271662144    0.3500
     33 H33        -3.1377    5.5320   53.1815 H       1  ZINC000271662144    0.1100
     34 H34        -3.7391    4.5706   54.5535 H       1  ZINC000271662144    0.1200
     35 H35        -3.1007    3.0441   56.0217 H       1  ZINC000271662144    0.1300
     36 H36        -2.2266    2.3561   58.2179 H       1  ZINC000271662144    0.1400
     37 H37         1.6997    3.5252   57.0178 H       1  ZINC000271662144    0.1400
     38 H38         0.8229    4.2075   54.8208 H       1  ZINC000271662144    0.1300
     39 H39        -4.1542    5.0290   50.7114 H       1  ZINC000271662144    0.1400
     40 H40        -6.5510    4.7558   50.2158 H       1  ZINC000271662144    0.1400
     41 H41        -7.6804    2.6299   50.7326 H       1  ZINC000271662144    0.1400
     42 H42        -6.3257   -1.2660   53.6240 H       1  ZINC000271662144    0.4200
     43 H43        -5.2962    0.0604   53.6842 H       1  ZINC000271662144    0.4200
     44 H44        -4.0158    1.0480   52.2352 H       1  ZINC000271662144    0.1400
@<TRIPOS>BOND
     1     1     2    1
     2     1    29    1
     3     1    30    1
     4     1    31    1
     5     2     3    1
     6     2     4    1
     7     2    19    1
     8     4     5    1
     9     4    32    1
    10     5     6    1
    11     5     7    1
    12     5    12    1
    13     7     8    1
    14     7    33    1
    15     7    34    1
    16     8     9    1
    17     8    10    1
    18     8    11    1
    19    12    18   ar
    20    12    13   ar
    21    13    14   ar
    22    13    35    1
    23    14    15   ar
    24    14    36    1
    25    15    16    1
    26    15    17   ar
    27    17    18   ar
    28    17    37    1
    29    18    38    1
    30    19    28   ar
    31    19    20   ar
    32    20    21   ar
    33    20    39    1
    34    21    22   ar
    35    21    40    1
    36    22    23   ar
    37    22    41    1
    38    23    24    1
    39    23    28   ar
    40    24    25   am
    41    24    26    2
    42    24    27    2
    43    25    42    1
    44    25    43    1
    45    28    44    1
@<TRIPOS>SUBSTRUCTURE
     1 ZINC000271662144        1 TEMP              0 ****  ****    0 ROOT


##########                                Name:    ZINC001342629575
##########                DOCK_Rotatable_Bonds:                   9
##########                         Heavy_Atoms:                  29
##########                    Molecular_Weight:             396.533
##########                DOCK_Rotatable_Bonds:                   9
##########                       Formal_Charge:         -0.00999976
##########                     HBond_Acceptors:                   6
##########                        HBond_Donors:                   0
##########                         Heavy_Atoms:                  29
##########                          Grid_Score:          -30.219757
##########                     Grid_vdw_energy:          -29.131512
##########                      Grid_es_energy:           -1.088246
##########           Internal_energy_repulsive:           17.803988

@<TRIPOS>MOLECULE
ZINC001342629575
 61 64 1 0 0
SMALL
USER_CHARGES


@<TRIPOS>ATOM
      1 C1        -12.7649   -0.2152   56.3615 C.2     1  ZINC001342629575   -0.1800
      2 C2        -12.4873   -0.9995   55.3497 C.2     1  ZINC001342629575   -0.1600
      3 C3        -11.1618   -0.8774   54.6431 C.3     1  ZINC001342629575   -0.0800
      4 C4        -11.0884    0.4724   53.9266 C.3     1  ZINC001342629575    0.0500
      5 H5        -11.2615    1.2745   54.6441 H       1  ZINC001342629575    0.0900
      6 C6         -9.7249    0.6386   53.3068 C.2     1  ZINC001342629575    0.2000
      7 N7         -8.8816   -0.3149   53.0288 N.2     1  ZINC001342629575   -0.2700
      8 N8         -7.8150    0.1780   52.5077 N.2     1  ZINC001342629575   -0.3000
      9 C9         -7.9215    1.4832   52.4247 C.2     1  ZINC001342629575    0.3400
     10 N10        -6.9725    2.3566   51.9178 N.3     1  ZINC001342629575   -0.4300
     11 C11        -6.3929    1.8369   50.6525 C.3     1  ZINC001342629575    0.0400
     12 C12        -5.0461    2.5778   50.5084 C.3     1  ZINC001342629575   -0.1200
     13 C13        -4.6615    2.9930   51.9435 C.3     1  ZINC001342629575   -0.1200
     14 C14        -5.8082    2.4680   52.8339 C.3     1  ZINC001342629575    0.0700
     15 H15        -5.5534    1.4914   53.2453 H       1  ZINC001342629575    0.0900
     16 C16        -6.1057    3.4595   53.9605 C.3     1  ZINC001342629575    0.1000
     17 H17        -6.5982    4.3432   53.5549 H       1  ZINC001342629575    0.0700
     18 C18        -4.7913    3.8671   54.6601 C.3     1  ZINC001342629575   -0.1400
     19 C19        -5.2165    3.9250   56.1527 C.3     1  ZINC001342629575   -0.1600
     20 C20        -6.2622    2.7826   56.2051 C.3     1  ZINC001342629575    0.0500
     21 O21        -6.9469    2.8420   54.9417 O.3     1  ZINC001342629575   -0.3700
     22 N22        -9.1456    1.8175   52.9264 N.pl3   1  ZINC001342629575   -0.4600
     23 C23        -9.7169    3.1614   53.0426 C.3     1  ZINC001342629575    0.1100
     24 C24        -9.9455    3.7411   51.6452 C.3     1  ZINC001342629575    0.0500
     25 O25       -11.2490    3.3776   51.1860 O.3     1  ZINC001342629575   -0.3800
     26 C26       -11.5618    3.8648   49.8797 C.3     1  ZINC001342629575    0.0300
     27 C27       -12.1401    0.5270   52.8488 C.ar    1  ZINC001342629575   -0.0900
     28 C28       -12.0612   -0.3240   51.7622 C.ar    1  ZINC001342629575   -0.0900
     29 C29       -13.0260   -0.2741   50.7736 C.ar    1  ZINC001342629575   -0.1200
     30 C30       -14.0701    0.6267   50.8715 C.ar    1  ZINC001342629575   -0.1200
     31 C31       -14.1495    1.4772   51.9584 C.ar    1  ZINC001342629575   -0.1200
     32 C32       -13.1870    1.4241   52.9493 C.ar    1  ZINC001342629575   -0.1100
     33 H33       -13.7148   -0.3026   56.8679 H       1  ZINC001342629575    0.1000
     34 H34       -12.0420    0.5159   56.6923 H       1  ZINC001342629575    0.1000
     35 H35       -13.2084   -1.7336   55.0218 H       1  ZINC001342629575    0.1000
     36 H36       -10.3540   -0.9465   55.3716 H       1  ZINC001342629575    0.0900
     37 H37       -11.0634   -1.6816   53.9140 H       1  ZINC001342629575    0.0800
     38 H38        -6.2295    0.7616   50.7226 H       1  ZINC001342629575    0.0600
     39 H39        -7.0463    2.0691   49.8115 H       1  ZINC001342629575    0.0800
     40 H40        -4.2904    1.9121   50.0916 H       1  ZINC001342629575    0.0800
     41 H41        -5.1644    3.4592   49.8783 H       1  ZINC001342629575    0.0800
     42 H42        -3.7171    2.5310   52.2311 H       1  ZINC001342629575    0.0800
     43 H43        -4.5910    4.0782   52.0176 H       1  ZINC001342629575    0.0800
     44 H44        -4.0196    3.1131   54.5056 H       1  ZINC001342629575    0.0900
     45 H45        -4.4549    4.8446   54.3145 H       1  ZINC001342629575    0.0800
     46 H46        -4.3726    3.7155   56.8101 H       1  ZINC001342629575    0.0800
     47 H47        -5.6715    4.8855   56.3947 H       1  ZINC001342629575    0.0800
     48 H48        -5.7649    1.8197   56.3219 H       1  ZINC001342629575    0.0600
     49 H49        -6.9635    2.9489   57.0228 H       1  ZINC001342629575    0.0900
     50 H50       -10.6673    3.1077   53.5735 H       1  ZINC001342629575    0.1000
     51 H51        -9.0287    3.8024   53.5937 H       1  ZINC001342629575    0.1100
     52 H52        -9.8640    4.8273   51.6846 H       1  ZINC001342629575    0.0600
     53 H53        -9.1955    3.3450   50.9604 H       1  ZINC001342629575    0.0600
     54 H54       -12.5673    3.5465   49.6043 H       1  ZINC001342629575    0.0900
     55 H55       -11.5116    4.9536   49.8762 H       1  ZINC001342629575    0.0400
     56 H56       -10.8451    3.4658   49.1617 H       1  ZINC001342629575    0.0400
     57 H57       -11.2456   -1.0278   51.6857 H       1  ZINC001342629575    0.1300
     58 H58       -12.9640   -0.9385   49.9245 H       1  ZINC001342629575    0.1200
     59 H59       -14.8234    0.6663   50.0988 H       1  ZINC001342629575    0.1200
     60 H60       -14.9649    2.1811   52.0348 H       1  ZINC001342629575    0.1200
     61 H61       -13.2491    2.0886   53.7985 H       1  ZINC001342629575    0.1200
@<TRIPOS>BOND
     1     1     2    2
     2     1    33    1
     3     1    34    1
     4     2     3    1
     5     2    35    1
     6     3     4    1
     7     3    36    1
     8     3    37    1
     9     4     5    1
    10     4     6    1
    11     4    27    1
    12     6    22    1
    13     6     7    2
    14     7     8    1
    15     8     9    2
    16     9    10    1
    17     9    22    1
    18    10    14    1
    19    10    11    1
    20    11    12    1
    21    11    38    1
    22    11    39    1
    23    12    13    1
    24    12    40    1
    25    12    41    1
    26    13    14    1
    27    13    42    1
    28    13    43    1
    29    14    15    1
    30    14    16    1
    31    16    17    1
    32    16    21    1
    33    16    18    1
    34    18    19    1
    35    18    44    1
    36    18    45    1
    37    19    20    1
    38    19    46    1
    39    19    47    1
    40    20    21    1
    41    20    48    1
    42    20    49    1
    43    22    23    1
    44    23    24    1
    45    23    50    1
    46    23    51    1
    47    24    25    1
    48    24    52    1
    49    24    53    1
    50    25    26    1
    51    26    54    1
    52    26    55    1
    53    26    56    1
    54    27    32   ar
    55    27    28   ar
    56    28    29   ar
    57    28    57    1
    58    29    30   ar
    59    29    58    1
    60    30    31   ar
    61    30    59    1
    62    31    32   ar
    63    31    60    1
    64    32    61    1
@<TRIPOS>SUBSTRUCTURE
     1 ZINC001342629575        1 TEMP              0 ****  ****    0 ROOT


##########                                Name:    ZINC000191003171
##########                DOCK_Rotatable_Bonds:                   6
##########                         Heavy_Atoms:                  26
##########                    Molecular_Weight:             389.414
##########                DOCK_Rotatable_Bonds:                   6
##########                       Formal_Charge:          -0.0200002
##########                     HBond_Acceptors:                   8
##########                        HBond_Donors:                   1
##########                         Heavy_Atoms:                  26
##########                          Grid_Score:          -30.183939
##########                     Grid_vdw_energy:          -30.312593
##########                      Grid_es_energy:            0.128654
##########           Internal_energy_repulsive:           15.038086

@<TRIPOS>MOLECULE
ZINC000191003171
 45 46 1 0 0
SMALL
USER_CHARGES


@<TRIPOS>ATOM
      1 C1        -10.5348   -2.5351   57.1656 C.3     1  ZINC000191003171   -0.1200
      2 C2        -11.9115   -2.0321   56.8148 C.ar    1  ZINC000191003171   -0.0800
      3 C3        -13.0194   -2.8196   57.0649 C.ar    1  ZINC000191003171   -0.0700
      4 C4        -14.2824   -2.3581   56.7430 C.ar    1  ZINC000191003171   -0.1800
      5 C5        -15.4904   -3.2169   57.0153 C.3     1  ZINC000191003171    0.5100
      6 F6        -15.9254   -3.0070   58.3283 F       1  ZINC000191003171   -0.1800
      7 F7        -16.5144   -2.8771   56.1248 F       1  ZINC000191003171   -0.1800
      8 F8        -15.1528   -4.5640   56.8457 F       1  ZINC000191003171   -0.1800
      9 C9        -14.4370   -1.1091   56.1719 C.ar    1  ZINC000191003171   -0.0800
     10 C10       -13.3287   -0.3212   55.9220 C.ar    1  ZINC000191003171   -0.1000
     11 C11       -12.0665   -0.7807   56.2478 C.ar    1  ZINC000191003171   -0.0500
     12 C12       -10.8584    0.0780   55.9755 C.3     1  ZINC000191003171    0.0900
     13 N13       -10.1953   -0.3844   54.7491 N.3     1  ZINC000191003171   -0.6800
     14 C14       -10.5637    0.4563   53.6021 C.3     1  ZINC000191003171    0.1200
     15 H15       -11.1639    1.2983   53.9468 H       1  ZINC000191003171    0.0600
     16 C16       -11.3734   -0.3716   52.6021 C.3     1  ZINC000191003171   -0.1400
     17 C17        -9.3145    0.9700   52.9340 C.ar    1  ZINC000191003171   -0.0100
     18 C18        -9.1475    2.3272   52.7316 C.ar    1  ZINC000191003171   -0.1300
     19 C19        -8.0018    2.8000   52.1187 C.ar    1  ZINC000191003171    0.0100
     20 C20        -7.0225    1.9161   51.7076 C.ar    1  ZINC000191003171   -0.7000
     21 S21        -5.5626    2.5191   50.9266 S.o2    1  ZINC000191003171    2.5000
     22 C22        -4.2074    1.9050   51.9644 C.3     1  ZINC000191003171   -0.6500
     23 O23        -5.5517    1.8755   49.6598 O.2     1  ZINC000191003171   -0.9300
     24 O24        -5.6684    3.9324   51.0294 O.2     1  ZINC000191003171   -0.9300
     25 C25        -7.1885    0.5563   51.9104 C.ar    1  ZINC000191003171    0.1900
     26 F26        -6.2316   -0.3088   51.5089 F       1  ZINC000191003171   -0.1200
     27 C27        -8.3336    0.0845   52.5288 C.ar    1  ZINC000191003171   -0.1700
     28 H28       -10.2906   -2.2428   58.1869 H       1  ZINC000191003171    0.0800
     29 H29       -10.5132   -3.6218   57.0838 H       1  ZINC000191003171    0.0800
     30 H30        -9.8050   -2.1045   56.4801 H       1  ZINC000191003171    0.0600
     31 H31       -12.8986   -3.7954   57.5116 H       1  ZINC000191003171    0.1400
     32 H32       -15.4234   -0.7486   55.9203 H       1  ZINC000191003171    0.1400
     33 H33       -13.4494    0.6547   55.4754 H       1  ZINC000191003171    0.1400
     34 H34       -11.1703    1.1150   55.8510 H       1  ZINC000191003171    0.0900
     35 H35       -10.1648    0.0054   56.8131 H       1  ZINC000191003171    0.0500
     36 H36        -9.1938   -0.4142   54.8687 H       1  ZINC000191003171    0.3500
     37 H37       -11.6468    0.2522   51.7511 H       1  ZINC000191003171    0.0600
     38 H38       -10.7731   -1.2136   52.2574 H       1  ZINC000191003171    0.0700
     39 H39       -12.2769   -0.7432   53.0855 H       1  ZINC000191003171    0.0600
     40 H40        -9.9126    3.0187   53.0521 H       1  ZINC000191003171    0.1500
     41 H41        -7.8725    3.8605   51.9608 H       1  ZINC000191003171    0.1600
     42 H42        -4.2347    0.8156   51.9904 H       1  ZINC000191003171    0.1300
     43 H43        -3.2546    2.2346   51.5503 H       1  ZINC000191003171    0.1400
     44 H44        -4.3187    2.2955   52.9759 H       1  ZINC000191003171    0.1300
     45 H45        -8.4640   -0.9757   52.6878 H       1  ZINC000191003171    0.1500
@<TRIPOS>BOND
     1     1     2    1
     2     1    28    1
     3     1    29    1
     4     1    30    1
     5     2    11   ar
     6     2     3   ar
     7     3     4   ar
     8     3    31    1
     9     4     5    1
    10     4     9   ar
    11     5     6    1
    12     5     7    1
    13     5     8    1
    14     9    10   ar
    15     9    32    1
    16    10    11   ar
    17    10    33    1
    18    11    12    1
    19    12    13    1
    20    12    34    1
    21    12    35    1
    22    13    14    1
    23    13    36    1
    24    14    15    1
    25    14    16    1
    26    14    17    1
    27    16    37    1
    28    16    38    1
    29    16    39    1
    30    17    27   ar
    31    17    18   ar
    32    18    19   ar
    33    18    40    1
    34    19    20   ar
    35    19    41    1
    36    20    21    1
    37    20    25   ar
    38    21    22    1
    39    21    23    2
    40    21    24    2
    41    22    42    1
    42    22    43    1
    43    22    44    1
    44    25    26    1
    45    25    27   ar
    46    27    45    1
@<TRIPOS>SUBSTRUCTURE
     1 ZINC000191003171        1 TEMP              0 ****  ****    0 ROOT


##########                                Name:    ZINC000004313955
##########                DOCK_Rotatable_Bonds:                   6
##########                         Heavy_Atoms:                  26
##########                    Molecular_Weight:             414.358
##########                DOCK_Rotatable_Bonds:                   6
##########                       Formal_Charge:           0.0299997
##########                     HBond_Acceptors:                   9
##########                        HBond_Donors:                   2
##########                         Heavy_Atoms:                  26
##########                          Grid_Score:          -30.169138
##########                     Grid_vdw_energy:          -29.168201
##########                      Grid_es_energy:           -1.000936
##########           Internal_energy_repulsive:           13.207296

@<TRIPOS>MOLECULE
ZINC000004313955
 47 49 1 0 0
SMALL
USER_CHARGES


@<TRIPOS>ATOM
      1 C1        -11.8970    0.2849   60.3472 C.3     1  ZINC000004313955   -0.1500
      2 C2        -12.0084   -0.3545   58.9616 C.3     1  ZINC000004313955   -0.1100
      3 H3        -13.0153   -0.2053   58.5719 H       1  ZINC000004313955    0.0800
      4 C4        -11.7180   -1.8535   59.0660 C.3     1  ZINC000004313955   -0.1100
      5 C5        -11.8613   -2.4999   57.6862 C.3     1  ZINC000004313955   -0.1100
      6 H6        -11.6772   -3.5713   57.7656 H       1  ZINC000004313955    0.0900
      7 C7        -13.2767   -2.2627   57.1557 C.3     1  ZINC000004313955   -0.1500
      8 C8        -10.8434   -1.8759   56.7263 C.3     1  ZINC000004313955    0.1200
      9 N9        -11.0215   -0.4175   56.7309 N.am    1  ZINC000004313955   -0.6000
     10 C10       -11.2086    0.2551   55.5780 C.2     1  ZINC000004313955    0.5400
     11 O11       -11.2297   -0.3435   54.5234 O.2     1  ZINC000004313955   -0.5300
     12 C12       -11.3914    1.7508   55.5993 C.3     1  ZINC000004313955   -0.1400
     13 S13        -9.8274    2.5433   56.0490 S.3     1  ZINC000004313955    0.0800
     14 C14        -8.9581    2.3915   54.5238 C.2     1  ZINC000004313955    0.1100
     15 N15        -9.4935    2.3004   53.3271 N.2     1  ZINC000004313955   -0.2800
     16 N16        -8.5713    2.2027   52.4373 N.2     1  ZINC000004313955   -0.2400
     17 C17        -7.3908    2.2255   53.0110 C.2     1  ZINC000004313955    0.2500
     18 C18        -6.0815    2.1371   52.3305 C.ar    1  ZINC000004313955   -0.0100
     19 C19        -5.3604    3.2973   52.0451 C.ar    1  ZINC000004313955   -0.0700
     20 C20        -4.1392    3.2086   51.4098 C.ar    1  ZINC000004313955   -0.1100
     21 C21        -3.6279    1.9717   51.0546 C.ar    1  ZINC000004313955   -0.0100
     22 Cl22       -2.0905    1.8692   50.2549 Cl      1  ZINC000004313955   -0.0500
     23 C23        -4.3376    0.8163   51.3351 C.ar    1  ZINC000004313955   -0.1100
     24 C24        -5.5581    0.8913   51.9756 C.ar    1  ZINC000004313955    0.0100
     25 Cl25       -6.4470   -0.5579   52.3266 Cl      1  ZINC000004313955   -0.0100
     26 N26        -7.6020    2.3526   54.3645 N.pl3   1  ZINC000004313955   -0.3000
     27 N27        -6.6535    2.4181   55.3454 N.3     1  ZINC000004313955   -0.5800
     28 C28       -10.9928    0.2943   58.0160 C.3     1  ZINC000004313955    0.1100
     29 H29       -12.1028    1.3527   60.2722 H       1  ZINC000004313955    0.0600
     30 H30       -12.6190   -0.1779   61.0199 H       1  ZINC000004313955    0.0600
     31 H31       -10.8900    0.1354   60.7365 H       1  ZINC000004313955    0.0600
     32 H32       -10.7024   -2.0020   59.4330 H       1  ZINC000004313955    0.0700
     33 H33       -12.4244   -2.3129   59.7574 H       1  ZINC000004313955    0.0700
     34 H34       -13.4598   -1.1912   57.0755 H       1  ZINC000004313955    0.0600
     35 H35       -13.3782   -2.7232   56.1730 H       1  ZINC000004313955    0.0600
     36 H36       -14.0002   -2.7047   57.8407 H       1  ZINC000004313955    0.0600
     37 H37        -9.8335   -2.1218   57.0543 H       1  ZINC000004313955    0.0700
     38 H38       -11.0069   -2.2608   55.7197 H       1  ZINC000004313955    0.1000
     39 H39       -11.7014    2.0930   54.6120 H       1  ZINC000004313955    0.1300
     40 H40       -12.1553    2.0130   56.3313 H       1  ZINC000004313955    0.1300
     41 H41        -5.7580    4.2629   52.3208 H       1  ZINC000004313955    0.1600
     42 H42        -3.5805    4.1061   51.1885 H       1  ZINC000004313955    0.1500
     43 H43        -3.9338   -0.1455   51.0557 H       1  ZINC000004313955    0.1500
     44 H44        -5.8302    1.8948   55.0877 H       1  ZINC000004313955    0.3700
     45 H45        -6.4206    3.3762   55.5597 H       1  ZINC000004313955    0.3800
     46 H46       -11.2543    1.3409   57.8598 H       1  ZINC000004313955    0.0900
     47 H47        -9.9951    0.2257   58.4496 H       1  ZINC000004313955    0.0800
@<TRIPOS>BOND
     1     1     2    1
     2     1    29    1
     3     1    30    1
     4     1    31    1
     5     2     3    1
     6     2    28    1
     7     2     4    1
     8     4     5    1
     9     4    32    1
    10     4    33    1
    11     5     6    1
    12     5     7    1
    13     5     8    1
    14     7    34    1
    15     7    35    1
    16     7    36    1
    17     8     9    1
    18     8    37    1
    19     8    38    1
    20     9    10   am
    21     9    28    1
    22    10    11    2
    23    10    12    1
    24    12    13    1
    25    12    39    1
    26    12    40    1
    27    13    14    1
    28    14    26    1
    29    14    15    2
    30    15    16    1
    31    16    17    2
    32    17    18    1
    33    17    26    1
    34    18    24   ar
    35    18    19   ar
    36    19    20   ar
    37    19    41    1
    38    20    21   ar
    39    20    42    1
    40    21    22    1
    41    21    23   ar
    42    23    24   ar
    43    23    43    1
    44    24    25    1
    45    26    27    1
    46    27    44    1
    47    27    45    1
    48    28    46    1
    49    28    47    1
@<TRIPOS>SUBSTRUCTURE
     1 ZINC000004313955        1 TEMP              0 ****  ****    0 ROOT


##########                                Name:    ZINC000301324012
##########                DOCK_Rotatable_Bonds:                   7
##########                         Heavy_Atoms:                  28
##########                    Molecular_Weight:               415.9
##########                DOCK_Rotatable_Bonds:                   7
##########                       Formal_Charge:          -0.0100002
##########                     HBond_Acceptors:                   8
##########                        HBond_Donors:                   2
##########                         Heavy_Atoms:                  28
##########                          Grid_Score:          -30.150589
##########                     Grid_vdw_energy:          -29.260931
##########                      Grid_es_energy:           -0.889658
##########           Internal_energy_repulsive:           11.376884

@<TRIPOS>MOLECULE
ZINC000301324012
 46 48 1 0 0
SMALL
USER_CHARGES


@<TRIPOS>ATOM
      1 C1        -11.6040   -0.5409   55.4101 C.3     1  ZINC000301324012   -0.1600
      2 C2        -11.5648    0.5399   54.3279 C.3     1  ZINC000301324012    0.2000
      3 H3        -11.8368    1.5010   54.7643 H       1  ZINC000301324012    0.1100
      4 N4        -10.2131    0.6225   53.7690 N.am    1  ZINC000301324012   -0.7100
      5 C5         -9.8231    1.7312   53.1095 C.2     1  ZINC000301324012    0.5500
      6 O6        -10.5924    2.6634   52.9796 O.2     1  ZINC000301324012   -0.5300
      7 C7         -8.4596    1.8137   52.5440 C.ar    1  ZINC000301324012   -0.0700
      8 C8         -7.5574    0.7659   52.7338 C.ar    1  ZINC000301324012   -0.1100
      9 C9         -6.2868    0.8490   52.2030 C.ar    1  ZINC000301324012   -0.0200
     10 C10        -5.9059    1.9681   51.4842 C.ar    1  ZINC000301324012   -0.6600
     11 S11        -4.2809    2.0664   50.8100 S.o2    1  ZINC000301324012    2.6900
     12 O12        -3.5668    0.9485   51.3197 O.2     1  ZINC000301324012   -0.9400
     13 O13        -4.4376    2.3209   49.4208 O.2     1  ZINC000301324012   -0.9400
     14 N14        -3.5635    3.4128   51.4541 N.am    1  ZINC000301324012   -1.0500
     15 C15        -3.3986    3.5225   52.8375 C.ar    1  ZINC000301324012    0.1600
     16 C16        -4.4690    3.8979   53.6382 C.ar    1  ZINC000301324012   -0.1600
     17 C17        -4.3028    4.0054   55.0055 C.ar    1  ZINC000301324012   -0.0800
     18 C18        -3.0723    3.7402   55.5773 C.ar    1  ZINC000301324012   -0.1200
     19 C19        -2.0033    3.3659   54.7833 C.ar    1  ZINC000301324012   -0.0900
     20 C20        -2.1640    3.2504   53.4158 C.ar    1  ZINC000301324012   -0.0600
     21 Cl21       -0.8221    2.7806   52.4196 Cl      1  ZINC000301324012   -0.0600
     22 C22        -6.7956    3.0102   51.2919 C.ar    1  ZINC000301324012   -0.0200
     23 C23        -8.0708    2.9374   51.8129 C.ar    1  ZINC000301324012   -0.0800
     24 C24       -12.5405    0.1908   53.2338 C.ar    1  ZINC000301324012    0.1200
     25 C25       -13.8929    0.1455   53.5136 C.ar    1  ZINC000301324012   -0.1600
     26 C26       -14.7823   -0.1763   52.4996 C.ar    1  ZINC000301324012   -0.0700
     27 C27       -14.2754   -0.4414   51.2368 C.ar    1  ZINC000301324012   -0.1700
     28 C28       -12.9100   -0.3767   51.0319 C.ar    1  ZINC000301324012    0.1100
     29 N29       -12.0940   -0.0624   52.0189 N.ar    1  ZINC000301324012   -0.4900
     30 H30       -12.6096   -0.6024   55.8260 H       1  ZINC000301324012    0.0700
     31 H31       -11.3319   -1.5020   54.9738 H       1  ZINC000301324012    0.0600
     32 H32       -10.8983   -0.2884   56.2016 H       1  ZINC000301324012    0.0700
     33 H33        -9.5989   -0.1209   53.8736 H       1  ZINC000301324012    0.4100
     34 H34        -7.8533   -0.1080   53.2954 H       1  ZINC000301324012    0.1400
     35 H35        -5.5877    0.0388   52.3492 H       1  ZINC000301324012    0.1500
     36 H36        -3.2578    4.1253   50.8711 H       1  ZINC000301324012    0.4300
     37 H37        -5.4305    4.1059   53.1926 H       1  ZINC000301324012    0.1700
     38 H38        -5.1352    4.2974   55.6286 H       1  ZINC000301324012    0.1400
     39 H39        -2.9453    3.8258   56.6464 H       1  ZINC000301324012    0.1400
     40 H40        -1.0435    3.1595   55.2331 H       1  ZINC000301324012    0.1400
     41 H41        -6.4921    3.8809   50.7294 H       1  ZINC000301324012    0.1500
     42 H42        -8.7645    3.7514   51.6617 H       1  ZINC000301324012    0.1500
     43 H43       -14.2526    0.3576   54.5096 H       1  ZINC000301324012    0.1400
     44 H44       -15.8447   -0.2197   52.6892 H       1  ZINC000301324012    0.1400
     45 H45       -14.9390   -0.6957   50.4235 H       1  ZINC000301324012    0.1400
     46 H46       -12.5071   -0.5822   50.0512 H       1  ZINC000301324012    0.1600
@<TRIPOS>BOND
     1     1     2    1
     2     1    30    1
     3     1    31    1
     4     1    32    1
     5     2     3    1
     6     2     4    1
     7     2    24    1
     8     4     5   am
     9     4    33    1
    10     5     6    2
    11     5     7    1
    12     7    23   ar
    13     7     8   ar
    14     8     9   ar
    15     8    34    1
    16     9    10   ar
    17     9    35    1
    18    10    11    1
    19    10    22   ar
    20    11    12    2
    21    11    13    2
    22    11    14   am
    23    14    15    1
    24    14    36    1
    25    15    20   ar
    26    15    16   ar
    27    16    17   ar
    28    16    37    1
    29    17    18   ar
    30    17    38    1
    31    18    19   ar
    32    18    39    1
    33    19    20   ar
    34    19    40    1
    35    20    21    1
    36    22    23   ar
    37    22    41    1
    38    23    42    1
    39    24    29   ar
    40    24    25   ar
    41    25    26   ar
    42    25    43    1
    43    26    27   ar
    44    26    44    1
    45    27    28   ar
    46    27    45    1
    47    28    29   ar
    48    28    46    1
@<TRIPOS>SUBSTRUCTURE
     1 ZINC000301324012        1 TEMP              0 ****  ****    0 ROOT


##########                                Name:    ZINC000790735374
##########                DOCK_Rotatable_Bonds:                   5
##########                         Heavy_Atoms:                  25
##########                    Molecular_Weight:             353.445
##########                DOCK_Rotatable_Bonds:                   5
##########                       Formal_Charge:                   0
##########                     HBond_Acceptors:                   6
##########                        HBond_Donors:                   1
##########                         Heavy_Atoms:                  25
##########                          Grid_Score:          -30.109612
##########                     Grid_vdw_energy:          -28.772346
##########                      Grid_es_energy:           -1.337265
##########           Internal_energy_repulsive:            8.669959

@<TRIPOS>MOLECULE
ZINC000790735374
 44 47 1 0 0
SMALL
USER_CHARGES


@<TRIPOS>ATOM
      1 O1         -8.5877   -0.7684   52.7770 O.2     1  ZINC000790735374   -0.5100
      2 C2         -9.0882    0.3335   52.8557 C.2     1  ZINC000790735374    0.5000
      3 N3         -8.4191    1.4116   52.4012 N.am    1  ZINC000790735374   -0.7200
      4 C4         -7.0847    1.2532   51.8178 C.3     1  ZINC000790735374    0.1400
      5 C5         -6.6475    2.5726   51.1785 C.3     1  ZINC000790735374   -0.0300
      6 H6         -6.9157    2.5675   50.1220 H       1  ZINC000790735374    0.1100
      7 S7         -7.4922    3.9480   52.0048 S.3     1  ZINC000790735374   -0.2400
      8 C8         -6.5231    5.3627   51.3931 C.3     1  ZINC000790735374   -0.0800
      9 C9         -5.1027    5.2130   51.9175 C.3     1  ZINC000790735374   -0.0800
     10 C10        -4.4866    3.8779   51.6099 C.ar    1  ZINC000790735374   -0.0700
     11 C11        -3.0882    3.8618   51.6489 C.ar    1  ZINC000790735374   -0.1200
     12 C12        -2.3754    2.7114   51.4060 C.ar    1  ZINC000790735374   -0.1100
     13 C13        -3.0508    1.5398   51.1185 C.ar    1  ZINC000790735374   -0.1200
     14 C14        -4.4262    1.5500   51.0726 C.ar    1  ZINC000790735374   -0.1100
     15 C15        -5.1522    2.7210   51.3131 C.ar    1  ZINC000790735374   -0.0800
     16 C16       -10.4610    0.4965   53.4558 C.3     1  ZINC000790735374    0.0300
     17 H17       -10.3944    0.8158   54.4959 H       1  ZINC000790735374    0.1500
     18 C18       -11.3142    1.4855   52.6263 C.3     1  ZINC000790735374   -0.1400
     19 C19       -12.0672    0.5633   51.6863 C.2     1  ZINC000790735374    0.1200
     20 C20       -12.7859    0.9735   50.4635 C.ar    1  ZINC000790735374   -0.1000
     21 C21       -12.9104    2.3278   50.1314 C.ar    1  ZINC000790735374   -0.0400
     22 C22       -13.5932    2.6592   48.9741 C.ar    1  ZINC000790735374   -0.1700
     23 C23       -14.1256    1.6518   48.1902 C.ar    1  ZINC000790735374    0.1200
     24 N24       -13.9929    0.3834   48.5279 N.ar    1  ZINC000790735374   -0.4800
     25 C25       -13.3479    0.0171   49.6158 C.ar    1  ZINC000790735374    0.1400
     26 N26       -11.9717   -0.6417   52.1391 N.2     1  ZINC000790735374   -0.2700
     27 O27       -11.2239   -0.7214   53.3375 O.3     1  ZINC000790735374   -0.1600
     28 H28        -8.8210    2.2924   52.4605 H       1  ZINC000790735374    0.4100
     29 H29        -6.3771    0.9760   52.5992 H       1  ZINC000790735374    0.0800
     30 H30        -7.1108    0.4722   51.0578 H       1  ZINC000790735374    0.0900
     31 H31        -6.5164    5.3623   50.3031 H       1  ZINC000790735374    0.0900
     32 H32        -6.9561    6.2933   51.7601 H       1  ZINC000790735374    0.1100
     33 H33        -4.4835    5.9932   51.4749 H       1  ZINC000790735374    0.0900
     34 H34        -5.1136    5.3514   52.9986 H       1  ZINC000790735374    0.0900
     35 H35        -2.5562    4.7742   51.8749 H       1  ZINC000790735374    0.1200
     36 H36        -1.2961    2.7230   51.4390 H       1  ZINC000790735374    0.1300
     37 H37        -2.5050    0.6268   50.9316 H       1  ZINC000790735374    0.1300
     38 H38        -4.9548    0.6352   50.8490 H       1  ZINC000790735374    0.1300
     39 H39       -12.0053    2.0326   53.2675 H       1  ZINC000790735374    0.1200
     40 H40       -10.6776    2.1716   52.0676 H       1  ZINC000790735374    0.1100
     41 H41       -12.4849    3.0942   50.7622 H       1  ZINC000790735374    0.1500
     42 H42       -13.7093    3.6936   48.6864 H       1  ZINC000790735374    0.1500
     43 H43       -14.6593    1.9079   47.2868 H       1  ZINC000790735374    0.1600
     44 H44       -13.2598   -1.0315   49.8587 H       1  ZINC000790735374    0.1600
@<TRIPOS>BOND
     1     1     2    2
     2     2     3   am
     3     2    16    1
     4     3     4    1
     5     3    28    1
     6     4     5    1
     7     4    29    1
     8     4    30    1
     9     5     6    1
    10     5    15    1
    11     5     7    1
    12     7     8    1
    13     8     9    1
    14     8    31    1
    15     8    32    1
    16     9    10    1
    17     9    33    1
    18     9    34    1
    19    10    15   ar
    20    10    11   ar
    21    11    12   ar
    22    11    35    1
    23    12    13   ar
    24    12    36    1
    25    13    14   ar
    26    13    37    1
    27    14    15   ar
    28    14    38    1
    29    16    17    1
    30    16    27    1
    31    16    18    1
    32    18    19    1
    33    18    39    1
    34    18    40    1
    35    19    20    1
    36    19    26    2
    37    20    25   ar
    38    20    21   ar
    39    21    22   ar
    40    21    41    1
    41    22    23   ar
    42    22    42    1
    43    23    24   ar
    44    23    43    1
    45    24    25   ar
    46    25    44    1
    47    26    27    1
@<TRIPOS>SUBSTRUCTURE
     1 ZINC000790735374        1 TEMP              0 ****  ****    0 ROOT


##########                                Name:    ZINC000433533595
##########                DOCK_Rotatable_Bonds:                  10
##########                         Heavy_Atoms:                  24
##########                    Molecular_Weight:             397.312
##########                DOCK_Rotatable_Bonds:                  10
##########                       Formal_Charge:          0.00999916
##########                     HBond_Acceptors:                   5
##########                        HBond_Donors:                   1
##########                         Heavy_Atoms:                  24
##########                          Grid_Score:          -30.102434
##########                     Grid_vdw_energy:          -27.642988
##########                      Grid_es_energy:           -2.459445
##########           Internal_energy_repulsive:           21.574738

@<TRIPOS>MOLECULE
ZINC000433533595
 49 50 1 0 0
SMALL
USER_CHARGES


@<TRIPOS>ATOM
      1 C1         -5.4641    6.3655   54.0016 C.3     1  ZINC000433533595   -0.1500
      2 C2         -5.2903    5.9016   52.5541 C.3     1  ZINC000433533595   -0.1200
      3 C3         -4.4529    4.6214   52.5257 C.3     1  ZINC000433533595   -0.1300
      4 C4         -4.2781    4.1582   51.0781 C.3     1  ZINC000433533595    0.1000
      5 N5         -3.5468    2.8889   51.0564 N.am    1  ZINC000433533595   -0.5500
      6 C6         -4.1652    1.7486   51.4219 C.2     1  ZINC000433533595    0.5100
      7 O7         -3.5594    0.6972   51.4039 O.2     1  ZINC000433533595   -0.5100
      8 C8         -5.5959    1.7788   51.8489 C.2     1  ZINC000433533595    0.5000
      9 O9         -6.4566    2.1194   51.0636 O.2     1  ZINC000433533595   -0.4900
     10 N10        -5.9314    1.4281   53.1062 N.am    1  ZINC000433533595   -0.6300
     11 C11        -7.2714    1.4564   53.5062 C.ar    1  ZINC000433533595    0.1200
     12 C12        -8.1760    0.5496   52.9727 C.ar    1  ZINC000433533595   -0.0600
     13 C13        -9.5002    0.5798   53.3700 C.ar    1  ZINC000433533595   -0.1100
     14 Br14      -10.7317   -0.6571   52.6424 Br      1  ZINC000433533595   -0.0400
     15 C15        -9.9259    1.5125   54.2988 C.ar    1  ZINC000433533595   -0.0600
     16 C16        -9.0299    2.4192   54.8346 C.ar    1  ZINC000433533595   -0.1900
     17 C17        -7.7006    2.3920   54.4464 C.ar    1  ZINC000433533595    0.1300
     18 O18        -6.8186    3.2831   54.9727 O.3     1  ZINC000433533595   -0.3100
     19 C19        -6.0129    2.8317   56.0632 C.3     1  ZINC000433533595    0.0800
     20 C20        -4.7262    3.6573   56.1225 C.3     1  ZINC000433533595   -0.1500
     21 C21        -6.7868    2.9988   57.3724 C.3     1  ZINC000433533595   -0.1800
     22 C22        -2.1433    2.8593   50.6374 C.3     1  ZINC000433533595    0.0600
     23 C23        -1.2264    3.9668   51.1604 C.3     1  ZINC000433533595   -0.1900
     24 C24        -1.0939    2.5432   51.7051 C.3     1  ZINC000433533595   -0.1800
     25 H25        -4.4858    6.5616   54.4403 H       1  ZINC000433533595    0.0500
     26 H26        -6.0607    7.2775   54.0217 H       1  ZINC000433533595    0.0500
     27 H27        -5.9698    5.5878   54.5740 H       1  ZINC000433533595    0.0500
     28 H28        -6.2687    5.7055   52.1153 H       1  ZINC000433533595    0.0700
     29 H29        -4.7847    6.6792   51.9815 H       1  ZINC000433533595    0.0600
     30 H30        -3.4749    4.8172   52.9652 H       1  ZINC000433533595    0.0600
     31 H31        -4.9590    3.8435   53.0975 H       1  ZINC000433533595    0.0700
     32 H32        -5.2574    4.0211   50.6196 H       1  ZINC000433533595    0.1100
     33 H33        -3.7182    4.9096   50.5213 H       1  ZINC000433533595    0.0800
     34 H34        -5.2436    1.1560   53.7337 H       1  ZINC000433533595    0.4300
     35 H35        -7.8461   -0.1793   52.2473 H       1  ZINC000433533595    0.1600
     36 H36       -10.9612    1.5327   54.6059 H       1  ZINC000433533595    0.1400
     37 H37        -9.3657    3.1460   55.5594 H       1  ZINC000433533595    0.1500
     38 H38        -5.7639    1.7803   55.9200 H       1  ZINC000433533595    0.0800
     39 H39        -4.9753    4.7087   56.2656 H       1  ZINC000433533595    0.0700
     40 H40        -4.1116    3.3129   56.9543 H       1  ZINC000433533595    0.0800
     41 H41        -4.1748    3.5382   55.1897 H       1  ZINC000433533595    0.0700
     42 H42        -7.0360    4.0503   57.5155 H       1  ZINC000433533595    0.0700
     43 H43        -7.7036    2.4107   57.3301 H       1  ZINC000433533595    0.0600
     44 H44        -6.1723    2.6545   58.2042 H       1  ZINC000433533595    0.0800
     45 H45        -1.9616    2.4898   49.6282 H       1  ZINC000433533595    0.1400
     46 H46        -0.4414    4.3264   50.4952 H       1  ZINC000433533595    0.0900
     47 H47        -1.6675    4.7175   51.8163 H       1  ZINC000433533595    0.1400
     48 H48        -1.4478    2.3573   52.7191 H       1  ZINC000433533595    0.1000
     49 H49        -0.2216    1.9661   51.3981 H       1  ZINC000433533595    0.1000
@<TRIPOS>BOND
     1     1     2    1
     2     1    25    1
     3     1    26    1
     4     1    27    1
     5     2     3    1
     6     2    28    1
     7     2    29    1
     8     3     4    1
     9     3    30    1
    10     3    31    1
    11     4     5    1
    12     4    32    1
    13     4    33    1
    14     5     6   am
    15     5    22    1
    16     6     7    2
    17     6     8    1
    18     8     9    2
    19     8    10   am
    20    10    11    1
    21    10    34    1
    22    11    17   ar
    23    11    12   ar
    24    12    13   ar
    25    12    35    1
    26    13    14    1
    27    13    15   ar
    28    15    16   ar
    29    15    36    1
    30    16    17   ar
    31    16    37    1
    32    17    18    1
    33    18    19    1
    34    19    20    1
    35    19    21    1
    36    19    38    1
    37    20    39    1
    38    20    40    1
    39    20    41    1
    40    21    42    1
    41    21    43    1
    42    21    44    1
    43    22    24    1
    44    22    23    1
    45    22    45    1
    46    23    24    1
    47    23    46    1
    48    23    47    1
    49    24    48    1
    50    24    49    1
@<TRIPOS>SUBSTRUCTURE
     1 ZINC000433533595        1 TEMP              0 ****  ****    0 ROOT


##########                                Name:    ZINC000763800048
##########                DOCK_Rotatable_Bonds:                   8
##########                         Heavy_Atoms:                  23
##########                    Molecular_Weight:             329.783
##########                DOCK_Rotatable_Bonds:                   8
##########                       Formal_Charge:           0.0199994
##########                     HBond_Acceptors:                   5
##########                        HBond_Donors:                   1
##########                         Heavy_Atoms:                  23
##########                          Grid_Score:          -30.081902
##########                     Grid_vdw_energy:          -29.779520
##########                      Grid_es_energy:           -0.302381
##########           Internal_energy_repulsive:            6.016767

@<TRIPOS>MOLECULE
ZINC000763800048
 39 40 1 0 0
SMALL
USER_CHARGES


@<TRIPOS>ATOM
      1 C1        -10.6537   -2.0927   56.8180 C.3     1  ZINC000763800048    0.0400
      2 O2        -10.6431   -2.0821   55.3660 O.3     1  ZINC000763800048   -0.3600
      3 C3        -10.6213   -0.8818   54.7656 C.2     1  ZINC000763800048    0.4600
      4 O4        -10.7279    0.1254   55.4244 O.2     1  ZINC000763800048   -0.4900
      5 C5        -10.4639   -0.7905   53.2696 C.3     1  ZINC000763800048   -0.0700
      6 C6         -9.7890    0.5091   52.9139 C.ar    1  ZINC000763800048   -0.0600
      7 C7        -10.5445    1.6532   52.7346 C.ar    1  ZINC000763800048   -0.1200
      8 C8         -9.9290    2.8479   52.4081 C.ar    1  ZINC000763800048   -0.1000
      9 C9         -8.5571    2.9020   52.2606 C.ar    1  ZINC000763800048   -0.1100
     10 C10        -7.7951    1.7545   52.4406 C.ar    1  ZINC000763800048    0.1500
     11 N11        -6.4057    1.8057   52.2921 N.am    1  ZINC000763800048   -0.6700
     12 C12        -5.7905    0.9835   51.4194 C.2     1  ZINC000763800048    0.5500
     13 O13        -6.4443    0.1963   50.7603 O.2     1  ZINC000763800048   -0.5200
     14 C14        -4.3363    1.0371   51.2640 C.2     1  ZINC000763800048   -0.2100
     15 C15        -3.7101    2.2290   51.1851 C.2     1  ZINC000763800048   -0.0100
     16 C16        -2.2476    2.2829   51.0305 C.ar    1  ZINC000763800048   -0.0800
     17 C17        -1.6462    1.8018   49.8630 C.ar    1  ZINC000763800048   -0.0900
     18 C18        -0.2758    1.8554   49.7252 C.ar    1  ZINC000763800048   -0.1100
     19 C19         0.5056    2.3839   50.7400 C.ar    1  ZINC000763800048   -0.0200
     20 Cl20        2.2308    2.4468   50.5579 Cl      1  ZINC000763800048   -0.0600
     21 C21        -0.0833    2.8626   51.8991 C.ar    1  ZINC000763800048   -0.1100
     22 C22        -1.4529    2.8207   52.0482 C.ar    1  ZINC000763800048   -0.0800
     23 C23        -8.4158    0.5574   52.7731 C.ar    1  ZINC000763800048   -0.1300
     24 H24       -10.6712   -3.1229   57.1737 H       1  ZINC000763800048    0.1000
     25 H25        -9.7591   -1.5946   57.1916 H       1  ZINC000763800048    0.0600
     26 H26       -11.5388   -1.5688   57.1787 H       1  ZINC000763800048    0.0600
     27 H27        -9.8564   -1.6238   52.9166 H       1  ZINC000763800048    0.1200
     28 H28       -11.4456   -0.8310   52.7978 H       1  ZINC000763800048    0.1200
     29 H29       -11.6176    1.6136   52.8493 H       1  ZINC000763800048    0.1200
     30 H30       -10.5221    3.7396   52.2680 H       1  ZINC000763800048    0.1300
     31 H31        -8.0772    3.8352   52.0054 H       1  ZINC000763800048    0.1400
     32 H32        -5.8847    2.4330   52.8174 H       1  ZINC000763800048    0.4100
     33 H33        -3.7646    0.1223   51.2126 H       1  ZINC000763800048    0.1300
     34 H34        -4.2818    3.1438   51.2351 H       1  ZINC000763800048    0.1400
     35 H35        -2.2541    1.3890   49.0715 H       1  ZINC000763800048    0.1400
     36 H36         0.1899    1.4844   48.8242 H       1  ZINC000763800048    0.1400
     37 H37         0.5321    3.2732   52.6860 H       1  ZINC000763800048    0.1400
     38 H38        -1.9106    3.1945   52.9521 H       1  ZINC000763800048    0.1400
     39 H39        -7.8261   -0.3364   52.9141 H       1  ZINC000763800048    0.1300
@<TRIPOS>BOND
     1     1     2    1
     2     1    24    1
     3     1    25    1
     4     1    26    1
     5     2     3    1
     6     3     4    2
     7     3     5    1
     8     5     6    1
     9     5    27    1
    10     5    28    1
    11     6    23   ar
    12     6     7   ar
    13     7     8   ar
    14     7    29    1
    15     8     9   ar
    16     8    30    1
    17     9    10   ar
    18     9    31    1
    19    10    11    1
    20    10    23   ar
    21    11    12   am
    22    11    32    1
    23    12    13    2
    24    12    14    1
    25    14    15    2
    26    14    33    1
    27    15    16    1
    28    15    34    1
    29    16    22   ar
    30    16    17   ar
    31    17    18   ar
    32    17    35    1
    33    18    19   ar
    34    18    36    1
    35    19    20    1
    36    19    21   ar
    37    21    22   ar
    38    21    37    1
    39    22    38    1
    40    23    39    1
@<TRIPOS>SUBSTRUCTURE
     1 ZINC000763800048        1 TEMP              0 ****  ****    0 ROOT


##########                                Name:    ZINC000329637067
##########                DOCK_Rotatable_Bonds:                   5
##########                         Heavy_Atoms:                  26
##########                    Molecular_Weight:             362.429
##########                DOCK_Rotatable_Bonds:                   5
##########                       Formal_Charge:           0.0199998
##########                     HBond_Acceptors:                   8
##########                        HBond_Donors:                   0
##########                         Heavy_Atoms:                  26
##########                          Grid_Score:          -30.068346
##########                     Grid_vdw_energy:          -29.058796
##########                      Grid_es_energy:           -1.009551
##########           Internal_energy_repulsive:           30.118103

@<TRIPOS>MOLECULE
ZINC000329637067
 52 54 1 0 0
SMALL
USER_CHARGES


@<TRIPOS>ATOM
      1 C1         -2.5760    3.7675   52.7420 C.3     1  ZINC000329637067   -0.1300
      2 C2         -1.6758    3.1233   51.7193 C.2     1  ZINC000329637067    0.2200
      3 C3         -0.3322    3.0657   51.9238 C.2     1  ZINC000329637067   -0.2900
      4 C4          0.4770    2.4618   50.9569 C.2     1  ZINC000329637067    0.2800
      5 C5          1.9682    2.3851   51.1605 C.3     1  ZINC000329637067   -0.1200
      6 N6         -0.0675    1.9595   49.8672 N.2     1  ZINC000329637067   -0.5500
      7 C7         -1.3871    2.0190   49.6720 C.2     1  ZINC000329637067    0.6400
      8 O8         -1.8660    1.5465   48.6549 O.2     1  ZINC000329637067   -0.5300
      9 N9         -2.1969    2.5881   50.5844 N.am    1  ZINC000329637067   -0.5000
     10 C10        -3.6417    2.6409   50.3478 C.3     1  ZINC000329637067    0.0700
     11 C11        -4.2989    1.4424   50.9825 C.2     1  ZINC000329637067    0.5100
     12 O12        -3.6308    0.4803   51.2972 O.2     1  ZINC000329637067   -0.5200
     13 N13        -5.6289    1.4398   51.2007 N.am    1  ZINC000329637067   -0.6100
     14 C14        -6.2838    0.2787   51.8186 C.3     1  ZINC000329637067    0.1000
     15 C15        -7.0909    0.7550   53.0303 C.3     1  ZINC000329637067   -0.1400
     16 C16        -8.0539    1.8614   52.5939 C.3     1  ZINC000329637067   -0.1000
     17 C17        -7.2566    3.0480   52.0481 C.3     1  ZINC000329637067   -0.1200
     18 H18        -6.5762    3.4138   52.8172 H       1  ZINC000329637067    0.1000
     19 C19        -8.2041    4.1500   51.6494 C.2     1  ZINC000329637067    0.5300
     20 O20        -8.6395    4.1957   50.5185 O.2     1  ZINC000329637067   -0.5300
     21 N21        -8.5676    5.0848   52.5498 N.am    1  ZINC000329637067   -0.6200
     22 C22        -9.4962    6.1667   52.1855 C.3     1  ZINC000329637067    0.0800
     23 C23       -10.6104    6.2220   53.2369 C.3     1  ZINC000329637067    0.0500
     24 O24       -10.0253    6.2990   54.5391 O.3     1  ZINC000329637067   -0.3800
     25 C25        -9.2328    5.1629   54.8928 C.3     1  ZINC000329637067    0.0500
     26 C26        -8.0524    5.0501   53.9277 C.3     1  ZINC000329637067    0.0700
     27 C27        -6.4504    2.6003   50.8308 C.3     1  ZINC000329637067    0.1200
     28 H28        -3.3440    3.0574   53.0486 H       1  ZINC000329637067    0.0900
     29 H29        -1.9866    4.0628   53.6101 H       1  ZINC000329637067    0.1000
     30 H30        -3.0483    4.6482   52.3068 H       1  ZINC000329637067    0.0900
     31 H31         0.1034    3.4811   52.8205 H       1  ZINC000329637067    0.1600
     32 H32         2.2166    1.4609   51.6823 H       1  ZINC000329637067    0.1000
     33 H33         2.4685    2.4015   50.1922 H       1  ZINC000329637067    0.0900
     34 H34         2.2981    3.2376   51.7543 H       1  ZINC000329637067    0.0900
     35 H35        -4.0485    3.5525   50.7853 H       1  ZINC000329637067    0.1200
     36 H36        -3.8345    2.6352   49.2749 H       1  ZINC000329637067    0.1300
     37 H37        -6.9515   -0.1912   51.0965 H       1  ZINC000329637067    0.0800
     38 H38        -5.5286   -0.4380   52.1413 H       1  ZINC000329637067    0.0900
     39 H39        -7.6584   -0.0804   53.4406 H       1  ZINC000329637067    0.0900
     40 H40        -6.4121    1.1422   53.7902 H       1  ZINC000329637067    0.0700
     41 H41        -8.7163    1.4805   51.8166 H       1  ZINC000329637067    0.0800
     42 H42        -8.6469    2.1849   53.4494 H       1  ZINC000329637067    0.0800
     43 H43        -8.9628    7.1171   52.1655 H       1  ZINC000329637067    0.0800
     44 H44        -9.9268    5.9661   51.2045 H       1  ZINC000329637067    0.1000
     45 H45       -11.2308    7.1013   53.0641 H       1  ZINC000329637067    0.1100
     46 H46       -11.2231    5.3234   53.1658 H       1  ZINC000329637067    0.0600
     47 H47        -8.8621    5.2804   55.9111 H       1  ZINC000329637067    0.1100
     48 H48        -9.8405    4.2605   54.8276 H       1  ZINC000329637067    0.0600
     49 H49        -7.5252    4.1120   54.1006 H       1  ZINC000329637067    0.1000
     50 H50        -7.3720    5.8878   54.0806 H       1  ZINC000329637067    0.0800
     51 H51        -5.8064    3.4149   50.4992 H       1  ZINC000329637067    0.1000
     52 H52        -7.1297    2.3182   50.0263 H       1  ZINC000329637067    0.0800
@<TRIPOS>BOND
     1     1     2    1
     2     1    28    1
     3     1    29    1
     4     1    30    1
     5     2     9    1
     6     2     3    2
     7     3     4    1
     8     3    31    1
     9     4     5    1
    10     4     6    2
    11     5    32    1
    12     5    33    1
    13     5    34    1
    14     6     7    1
    15     7     8    2
    16     7     9   am
    17     9    10    1
    18    10    11    1
    19    10    35    1
    20    10    36    1
    21    11    12    2
    22    11    13   am
    23    13    27    1
    24    13    14    1
    25    14    15    1
    26    14    37    1
    27    14    38    1
    28    15    16    1
    29    15    39    1
    30    15    40    1
    31    16    17    1
    32    16    41    1
    33    16    42    1
    34    17    18    1
    35    17    19    1
    36    17    27    1
    37    19    20    2
    38    19    21   am
    39    21    26    1
    40    21    22    1
    41    22    23    1
    42    22    43    1
    43    22    44    1
    44    23    24    1
    45    23    45    1
    46    23    46    1
    47    24    25    1
    48    25    26    1
    49    25    47    1
    50    25    48    1
    51    26    49    1
    52    26    50    1
    53    27    51    1
    54    27    52    1
@<TRIPOS>SUBSTRUCTURE
     1 ZINC000329637067        1 TEMP              0 ****  ****    0 ROOT


##########                                Name:    ZINC000579444893
##########                DOCK_Rotatable_Bonds:                   8
##########                         Heavy_Atoms:                  26
##########                    Molecular_Weight:             365.494
##########                DOCK_Rotatable_Bonds:                   8
##########                       Formal_Charge:         -0.00999993
##########                     HBond_Acceptors:                   7
##########                        HBond_Donors:                   1
##########                         Heavy_Atoms:                  26
##########                          Grid_Score:          -30.064766
##########                     Grid_vdw_energy:          -29.522743
##########                      Grid_es_energy:           -0.542023
##########           Internal_energy_repulsive:           60.045971

@<TRIPOS>MOLECULE
ZINC000579444893
 58 60 1 0 0
SMALL
USER_CHARGES


@<TRIPOS>ATOM
      1 C1         -8.3660    5.8090   55.5198 C.3     1  ZINC000579444893   -0.1600
      2 C2         -8.6681    4.4226   54.9474 C.3     1  ZINC000579444893    0.1700
      3 H3         -9.7376    4.3332   54.7572 H       1  ZINC000579444893    0.0900
      4 N4         -7.9323    4.2410   53.6938 N.am    1  ZINC000579444893   -0.7400
      5 C5         -8.5593    4.4131   52.5133 C.2     1  ZINC000579444893    0.7100
      6 O6         -9.7362    4.7178   52.4888 O.2     1  ZINC000579444893   -0.5900
      7 N7         -7.8819    4.2476   51.3599 N.am    1  ZINC000579444893   -0.6300
      8 C8         -8.5640    4.4330   50.0768 C.3     1  ZINC000579444893    0.0800
      9 C9         -6.4635    3.8823   51.3894 C.3     1  ZINC000579444893    0.1100
     10 C10        -6.2908    2.4636   50.8432 C.3     1  ZINC000579444893    0.0600
     11 H11        -6.7506    2.3872   49.8579 H       1  ZINC000579444893    0.1000
     12 C12        -6.9406    1.4476   51.8060 C.3     1  ZINC000579444893   -0.1600
     13 C13        -5.9540    0.2508   51.7692 C.3     1  ZINC000579444893    0.0800
     14 H14        -6.1426   -0.3842   50.9036 H       1  ZINC000579444893    0.1000
     15 F15        -6.0199   -0.4895   52.9544 F       1  ZINC000579444893   -0.2000
     16 C16        -4.5900    0.9736   51.6404 C.3     1  ZINC000579444893    0.0200
     17 N17        -4.8570    2.1312   50.7547 N.3     1  ZINC000579444893   -0.5000
     18 C18        -4.0256    3.2831   51.1288 C.3     1  ZINC000579444893    0.1000
     19 C19        -2.5737    2.8800   51.1161 C.2     1  ZINC000579444893    0.0800
     20 C20        -1.9529    2.1641   50.1501 C.2     1  ZINC000579444893   -0.2500
     21 C21        -0.6134    2.0099   50.5222 C.2     1  ZINC000579444893    0.0400
     22 N22        -0.4364    2.6117   51.6705 N.2     1  ZINC000579444893   -0.2900
     23 N23        -1.6582    3.1731   52.0632 N.pl3   1  ZINC000579444893   -0.3700
     24 C24        -1.9014    3.9359   53.2901 C.3     1  ZINC000579444893    0.0900
     25 C25        -8.2375    3.3513   55.9514 C.3     1  ZINC000579444893   -0.1000
     26 C26        -6.7179    3.4522   56.2334 C.3     1  ZINC000579444893   -0.1200
     27 C27        -6.5832    2.7835   57.6240 C.3     1  ZINC000579444893   -0.1300
     28 C28        -7.8427    3.2416   58.3877 C.3     1  ZINC000579444893   -0.1300
     29 C29        -8.8946    3.6027   57.3242 C.3     1  ZINC000579444893   -0.1200
     30 H30        -8.5870    6.5680   54.7694 H       1  ZINC000579444893    0.0600
     31 H31        -8.9827    5.9800   56.4022 H       1  ZINC000579444893    0.0700
     32 H32        -7.3131    5.8666   55.7958 H       1  ZINC000579444893    0.0500
     33 H33        -6.9937    3.9968   53.7133 H       1  ZINC000579444893    0.4000
     34 H34        -8.5583    5.4902   49.8117 H       1  ZINC000579444893    0.0600
     35 H35        -8.0478    3.8620   49.3050 H       1  ZINC000579444893    0.0800
     36 H36        -9.5936    4.0847   50.1590 H       1  ZINC000579444893    0.0700
     37 H37        -5.8957    4.5802   50.7741 H       1  ZINC000579444893    0.0900
     38 H38        -6.0990    3.9232   52.4158 H       1  ZINC000579444893    0.0900
     39 H39        -7.0089    1.8599   52.8126 H       1  ZINC000579444893    0.1100
     40 H40        -7.9239    1.1478   51.4436 H       1  ZINC000579444893    0.0800
     41 H41        -4.2467    1.3131   52.6177 H       1  ZINC000579444893    0.0600
     42 H42        -3.8517    0.3127   51.1865 H       1  ZINC000579444893    0.0900
     43 H43        -4.1843    4.0924   50.4161 H       1  ZINC000579444893    0.1100
     44 H44        -4.3004    3.6201   52.1283 H       1  ZINC000579444893    0.0500
     45 H45        -2.4108    1.7794   49.2508 H       1  ZINC000579444893    0.1500
     46 H46         0.1438    1.4844   49.9593 H       1  ZINC000579444893    0.1800
     47 H47        -1.7747    4.9995   53.0879 H       1  ZINC000579444893    0.0800
     48 H48        -2.9178    3.7508   53.6377 H       1  ZINC000579444893    0.0800
     49 H49        -1.1927    3.6251   54.0578 H       1  ZINC000579444893    0.0900
     50 H50        -8.4939    2.3584   55.5818 H       1  ZINC000579444893    0.0800
     51 H51        -6.1485    2.9028   55.4837 H       1  ZINC000579444893    0.0700
     52 H52        -6.4008    4.4943   56.2736 H       1  ZINC000579444893    0.0700
     53 H53        -6.5704    1.6980   57.5256 H       1  ZINC000579444893    0.0700
     54 H54        -5.6826    3.1322   58.1294 H       1  ZINC000579444893    0.0700
     55 H55        -8.2118    2.4329   59.0184 H       1  ZINC000579444893    0.0600
     56 H56        -7.6127    4.1156   58.9971 H       1  ZINC000579444893    0.0600
     57 H57        -9.1750    4.6518   57.4175 H       1  ZINC000579444893    0.0600
     58 H58        -9.7741    2.9691   57.4388 H       1  ZINC000579444893    0.0600
@<TRIPOS>BOND
     1     1     2    1
     2     1    30    1
     3     1    31    1
     4     1    32    1
     5     2     3    1
     6     2     4    1
     7     2    25    1
     8     4     5   am
     9     4    33    1
    10     5     6    2
    11     5     7   am
    12     7     8    1
    13     7     9    1
    14     8    34    1
    15     8    35    1
    16     8    36    1
    17     9    10    1
    18     9    37    1
    19     9    38    1
    20    10    11    1
    21    10    17    1
    22    10    12    1
    23    12    13    1
    24    12    39    1
    25    12    40    1
    26    13    14    1
    27    13    15    1
    28    13    16    1
    29    16    17    1
    30    16    41    1
    31    16    42    1
    32    17    18    1
    33    18    19    1
    34    18    43    1
    35    18    44    1
    36    19    23    1
    37    19    20    2
    38    20    21    1
    39    20    45    1
    40    21    22    2
    41    21    46    1
    42    22    23    1
    43    23    24    1
    44    24    47    1
    45    24    48    1
    46    24    49    1
    47    25    29    1
    48    25    26    1
    49    25    50    1
    50    26    27    1
    51    26    51    1
    52    26    52    1
    53    27    28    1
    54    27    53    1
    55    27    54    1
    56    28    29    1
    57    28    55    1
    58    28    56    1
    59    29    57    1
    60    29    58    1
@<TRIPOS>SUBSTRUCTURE
     1 ZINC000579444893        1 TEMP              0 ****  ****    0 ROOT


##########                                Name:    ZINC000277085192
##########                DOCK_Rotatable_Bonds:                   4
##########                         Heavy_Atoms:                  23
##########                    Molecular_Weight:             335.747
##########                DOCK_Rotatable_Bonds:                   4
##########                       Formal_Charge:         5.96046e-08
##########                     HBond_Acceptors:                   8
##########                        HBond_Donors:                   2
##########                         Heavy_Atoms:                  23
##########                          Grid_Score:          -30.056759
##########                     Grid_vdw_energy:          -30.284475
##########                      Grid_es_energy:            0.227716
##########           Internal_energy_repulsive:            5.841394

@<TRIPOS>MOLECULE
ZINC000277085192
 37 39 1 0 0
SMALL
USER_CHARGES


@<TRIPOS>ATOM
      1 O1         -4.0421    1.1401   51.6637 O.2     1  ZINC000277085192   -0.5000
      2 C2         -4.4105    2.0683   50.9751 C.2     1  ZINC000277085192    0.5000
      3 C3         -5.8532    2.1656   50.5508 C.3     1  ZINC000277085192    0.1100
      4 N4         -6.7049    1.5493   51.5711 N.am    1  ZINC000277085192   -0.6000
      5 C5         -7.3246    2.3893   52.5977 C.3     1  ZINC000277085192    0.1100
      6 C6         -8.7166    1.8473   52.9304 C.3     1  ZINC000277085192   -0.1600
      7 C7         -8.6334    0.3542   53.1254 C.2     1  ZINC000277085192    0.5200
      8 O8         -9.3468   -0.1918   53.9395 O.2     1  ZINC000277085192   -0.5000
      9 N9         -7.7673   -0.3719   52.3951 N.am    1  ZINC000277085192   -0.6700
     10 C10        -6.9107    0.2223   51.5484 C.2     1  ZINC000277085192    0.7200
     11 O11        -6.3002   -0.4582   50.7476 O.2     1  ZINC000277085192   -0.5500
     12 N12        -3.5307    3.0155   50.5942 N.am    1  ZINC000277085192   -0.6700
     13 C13        -2.1902    2.9252   50.9884 C.ar    1  ZINC000277085192    0.1400
     14 C14        -1.2564    2.3614   50.1389 C.ar    1  ZINC000277085192   -0.0400
     15 C15         0.0874    2.2701   50.5337 C.ar    1  ZINC000277085192   -0.1700
     16 C16         0.4680    2.7524   51.7864 C.ar    1  ZINC000277085192   -0.0500
     17 C17        -0.4746    3.3144   52.6269 C.ar    1  ZINC000277085192   -0.0900
     18 C18        -1.7968    3.4078   52.2331 C.ar    1  ZINC000277085192   -0.0300
     19 Cl19       -2.9705    4.1158   53.2984 Cl      1  ZINC000277085192   -0.0500
     20 C20         1.9512    2.5440   51.9795 C.3     1  ZINC000277085192   -0.0800
     21 C21         2.4624    1.8717   50.6980 C.3     1  ZINC000277085192   -0.1700
     22 C22         1.2478    1.7195   49.8150 C.2     1  ZINC000277085192    0.4100
     23 O23         1.2311    1.2293   48.7060 O.2     1  ZINC000277085192   -0.4300
     24 H24        -6.1275    3.2139   50.4334 H       1  ZINC000277085192    0.1300
     25 H25        -5.9888    1.6460   49.6022 H       1  ZINC000277085192    0.1200
     26 H26        -6.7071    2.3802   53.4958 H       1  ZINC000277085192    0.0800
     27 H27        -7.4115    3.4108   52.2273 H       1  ZINC000277085192    0.1000
     28 H28        -9.0802    2.3144   53.8456 H       1  ZINC000277085192    0.1300
     29 H29        -9.3996    2.0699   52.1106 H       1  ZINC000277085192    0.1200
     30 H30        -7.7642   -1.3382   52.4789 H       1  ZINC000277085192    0.4300
     31 H31        -3.8261    3.7598   50.0469 H       1  ZINC000277085192    0.4200
     32 H32        -1.5612    1.9910   49.1713 H       1  ZINC000277085192    0.1500
     33 H33        -0.1757    3.6862   53.5958 H       1  ZINC000277085192    0.1500
     34 H34         2.4485    3.5034   52.1230 H       1  ZINC000277085192    0.1000
     35 H35         2.1296    1.8971   52.8385 H       1  ZINC000277085192    0.1000
     36 H36         3.2063    2.5027   50.2116 H       1  ZINC000277085192    0.1100
     37 H37         2.8871    0.8945   50.9279 H       1  ZINC000277085192    0.1100
@<TRIPOS>BOND
     1     1     2    2
     2     2     3    1
     3     2    12   am
     4     3     4    1
     5     3    24    1
     6     3    25    1
     7     4    10   am
     8     4     5    1
     9     5     6    1
    10     5    26    1
    11     5    27    1
    12     6     7    1
    13     6    28    1
    14     6    29    1
    15     7     8    2
    16     7     9   am
    17     9    10   am
    18     9    30    1
    19    10    11    2
    20    12    13    1
    21    12    31    1
    22    13    18   ar
    23    13    14   ar
    24    14    15   ar
    25    14    32    1
    26    15    22    1
    27    15    16   ar
    28    16    17   ar
    29    16    20    1
    30    17    18   ar
    31    17    33    1
    32    18    19    1
    33    20    21    1
    34    20    34    1
    35    20    35    1
    36    21    22    1
    37    21    36    1
    38    21    37    1
    39    22    23    2
@<TRIPOS>SUBSTRUCTURE
     1 ZINC000277085192        1 TEMP              0 ****  ****    0 ROOT


##########                                Name:    ZINC000274225049
##########                DOCK_Rotatable_Bonds:                   6
##########                         Heavy_Atoms:                  25
##########                    Molecular_Weight:             380.895
##########                DOCK_Rotatable_Bonds:                   6
##########                       Formal_Charge:           0.0200006
##########                     HBond_Acceptors:                   7
##########                        HBond_Donors:                   2
##########                         Heavy_Atoms:                  25
##########                          Grid_Score:          -30.050047
##########                     Grid_vdw_energy:          -30.272787
##########                      Grid_es_energy:            0.222741
##########           Internal_energy_repulsive:           11.858711

@<TRIPOS>MOLECULE
ZINC000274225049
 46 48 1 0 0
SMALL
USER_CHARGES


@<TRIPOS>ATOM
      1 C1         -5.1881    2.8517   50.4340 C.3     1  ZINC000274225049   -0.1600
      2 C2         -4.6510    1.9068   51.5108 C.3     1  ZINC000274225049    0.2000
      3 H3         -4.3724    0.9568   51.0546 H       1  ZINC000274225049    0.1100
      4 N4         -5.6871    1.6781   52.5209 N.am    1  ZINC000274225049   -0.7400
      5 C5         -6.7023    0.8295   52.2648 C.2     1  ZINC000274225049    0.7100
      6 O6         -6.7574    0.2526   51.1960 O.2     1  ZINC000274225049   -0.5800
      7 N7         -7.6564    0.6203   53.1934 N.am    1  ZINC000274225049   -0.7500
      8 C8         -8.7589   -0.3034   52.9158 C.3     1  ZINC000274225049    0.1500
      9 C9         -9.9811    0.0973   53.7444 C.3     1  ZINC000274225049   -0.1000
     10 H10        -9.7550    0.0133   54.8074 H       1  ZINC000274225049    0.1000
     11 C11       -11.1777   -0.8019   53.3874 C.3     1  ZINC000274225049   -0.1100
     12 C12       -12.4598   -0.1720   53.9674 C.3     1  ZINC000274225049   -0.5900
     13 S13       -12.1229    1.6249   54.0261 S.o2    1  ZINC000274225049    2.3900
     14 O14       -12.9405    2.2888   53.0722 O.2     1  ZINC000274225049   -0.9300
     15 O15       -12.1188    2.0593   55.3791 O.2     1  ZINC000274225049   -0.9300
     16 C16       -10.4000    1.5509   53.4040 C.3     1  ZINC000274225049   -0.5900
     17 C17        -3.4410    2.5246   52.1631 C.ar    1  ZINC000274225049   -0.0700
     18 C18        -2.1819    2.4315   51.5466 C.ar    1  ZINC000274225049   -0.0300
     19 C19        -2.0178    1.7675   50.3189 C.ar    1  ZINC000274225049   -0.1100
     20 C20        -0.7830    1.6976   49.7511 C.ar    1  ZINC000274225049   -0.1100
     21 C21         0.3248    2.2753   50.3689 C.ar    1  ZINC000274225049   -0.1100
     22 C22         0.2038    2.9262   51.5580 C.ar    1  ZINC000274225049   -0.1000
     23 C23        -1.0554    3.0190   52.1748 C.ar    1  ZINC000274225049   -0.0400
     24 C24        -1.2199    3.6838   53.4029 C.ar    1  ZINC000274225049   -0.0300
     25 Cl25        0.1449    4.4118   54.1911 Cl      1  ZINC000274225049   -0.0600
     26 C26        -2.4565    3.7538   53.9706 C.ar    1  ZINC000274225049   -0.1000
     27 C27        -3.5639    3.1804   53.3498 C.ar    1  ZINC000274225049   -0.1000
     28 H28        -6.0631    2.4048   49.9621 H       1  ZINC000274225049    0.0700
     29 H29        -5.4666    3.8016   50.8902 H       1  ZINC000274225049    0.0700
     30 H30        -4.4171    3.0217   49.6824 H       1  ZINC000274225049    0.0800
     31 H31        -5.6425    2.1376   53.3740 H       1  ZINC000274225049    0.4000
     32 H32        -7.6131    1.0816   54.0457 H       1  ZINC000274225049    0.4000
     33 H33        -9.0093   -0.2622   51.8557 H       1  ZINC000274225049    0.0800
     34 H34        -8.4582   -1.3176   53.1789 H       1  ZINC000274225049    0.0800
     35 H35       -11.2661   -0.8811   52.3039 H       1  ZINC000274225049    0.0900
     36 H36       -11.0310   -1.7938   53.8147 H       1  ZINC000274225049    0.0900
     37 H37       -13.3099   -0.3766   53.3166 H       1  ZINC000274225049    0.1400
     38 H38       -12.6491   -0.5545   54.9703 H       1  ZINC000274225049    0.1400
     39 H39        -9.7686    2.2691   53.9269 H       1  ZINC000274225049    0.1400
     40 H40       -10.3698    1.7193   52.3275 H       1  ZINC000274225049    0.1400
     41 H41        -2.8671    1.3149   49.8288 H       1  ZINC000274225049    0.1300
     42 H42        -0.6595    1.1864   48.8077 H       1  ZINC000274225049    0.1300
     43 H43         1.2937    2.2051   49.8971 H       1  ZINC000274225049    0.1300
     44 H44         1.0711    3.3687   52.0253 H       1  ZINC000274225049    0.1300
     45 H45        -2.5805    4.2645   54.9141 H       1  ZINC000274225049    0.1300
     46 H46        -4.5331    3.2500   53.8211 H       1  ZINC000274225049    0.1300
@<TRIPOS>BOND
     1     1     2    1
     2     1    28    1
     3     1    29    1
     4     1    30    1
     5     2     3    1
     6     2     4    1
     7     2    17    1
     8     4     5   am
     9     4    31    1
    10     5     6    2
    11     5     7   am
    12     7     8    1
    13     7    32    1
    14     8     9    1
    15     8    33    1
    16     8    34    1
    17     9    10    1
    18     9    16    1
    19     9    11    1
    20    11    12    1
    21    11    35    1
    22    11    36    1
    23    12    13    1
    24    12    37    1
    25    12    38    1
    26    13    14    2
    27    13    15    2
    28    13    16    1
    29    16    39    1
    30    16    40    1
    31    17    27   ar
    32    17    18   ar
    33    18    23   ar
    34    18    19   ar
    35    19    20   ar
    36    19    41    1
    37    20    21   ar
    38    20    42    1
    39    21    22   ar
    40    21    43    1
    41    22    23   ar
    42    22    44    1
    43    23    24   ar
    44    24    25    1
    45    24    26   ar
    46    26    27   ar
    47    26    45    1
    48    27    46    1
@<TRIPOS>SUBSTRUCTURE
     1 ZINC000274225049        1 TEMP              0 ****  ****    0 ROOT


##########                                Name:    ZINC000151820600
##########                DOCK_Rotatable_Bonds:                  10
##########                         Heavy_Atoms:                  25
##########                    Molecular_Weight:             388.915
##########                DOCK_Rotatable_Bonds:                  10
##########                       Formal_Charge:           0.0499998
##########                     HBond_Acceptors:                   8
##########                        HBond_Donors:                   2
##########                         Heavy_Atoms:                  25
##########                          Grid_Score:          -30.033987
##########                     Grid_vdw_energy:          -28.082561
##########                      Grid_es_energy:           -1.951425
##########           Internal_energy_repulsive:           13.744758

@<TRIPOS>MOLECULE
ZINC000151820600
 50 50 1 0 0
SMALL
USER_CHARGES


@<TRIPOS>ATOM
      1 C1        -17.8613   -2.4019   57.5462 C.3     1  ZINC000151820600   -0.4900
      2 S2        -16.2014   -3.1127   57.7196 S.o     1  ZINC000151820600    1.2500
      3 O3        -15.9283   -3.3484   59.0941 O.2     1  ZINC000151820600   -0.8500
      4 C4        -15.1242   -1.7878   57.1076 C.3     1  ZINC000151820600   -0.4500
      5 C5        -13.6644   -2.2387   57.1894 C.3     1  ZINC000151820600   -0.1100
      6 C6        -12.7463   -1.0493   56.9007 C.3     1  ZINC000151820600    0.1200
      7 N7        -12.3441   -1.0735   55.4922 N.am    1  ZINC000151820600   -0.7200
      8 C8        -12.7570   -0.1000   54.6566 C.2     1  ZINC000151820600    0.5200
      9 O9        -13.4627    0.7955   55.0705 O.2     1  ZINC000151820600   -0.5200
     10 C10       -12.3418   -0.1239   53.2082 C.3     1  ZINC000151820600    0.1900
     11 H11       -12.2713   -1.1568   52.8674 H       1  ZINC000151820600    0.1300
     12 N12       -13.3368    0.5891   52.4032 N.am    1  ZINC000151820600   -0.6900
     13 C13       -13.4875    0.2896   51.0977 C.2     1  ZINC000151820600    0.6600
     14 O14       -12.7971   -0.5708   50.5882 O.2     1  ZINC000151820600   -0.5600
     15 O15       -14.4030    0.9437   50.3583 O.3     1  ZINC000151820600   -0.3600
     16 C16       -13.9028    1.8685   49.3570 C.3     1  ZINC000151820600    0.1400
     17 C17       -13.5354    1.0966   48.0881 C.3     1  ZINC000151820600   -0.1800
     18 C18       -14.9840    2.9008   49.0309 C.3     1  ZINC000151820600   -0.1400
     19 C19       -12.6620    2.5827   49.8967 C.3     1  ZINC000151820600   -0.1800
     20 C20       -11.0006    0.5470   53.0589 C.ar    1  ZINC000151820600   -0.1000
     21 C21       -10.9135    1.9264   53.0652 C.ar    1  ZINC000151820600   -0.0900
     22 C22        -9.6833    2.5426   52.9288 C.ar    1  ZINC000151820600   -0.1000
     23 C23        -8.5401    1.7796   52.7856 C.ar    1  ZINC000151820600   -0.1000
     24 C24        -8.6267    0.3985   52.7791 C.ar    1  ZINC000151820600   -0.0300
     25 Cl25       -7.1909   -0.5608   52.5998 Cl      1  ZINC000151820600   -0.0600
     26 C26        -9.8571   -0.2174   52.9213 C.ar    1  ZINC000151820600   -0.0900
     27 H27       -17.9322   -1.4940   58.1453 H       1  ZINC000151820600    0.0800
     28 H28       -18.0461   -2.1617   56.4992 H       1  ZINC000151820600    0.1100
     29 H29       -18.6031   -3.1228   57.8900 H       1  ZINC000151820600    0.1100
     30 H30       -15.3774   -1.5630   56.0715 H       1  ZINC000151820600    0.1200
     31 H31       -15.2635   -0.8953   57.7176 H       1  ZINC000151820600    0.0900
     32 H32       -13.4582   -2.6227   58.1884 H       1  ZINC000151820600    0.0800
     33 H33       -13.4847   -3.0232   56.4544 H       1  ZINC000151820600    0.0900
     34 H34       -13.2774   -0.1209   57.1110 H       1  ZINC000151820600    0.0800
     35 H35       -11.8604   -1.1123   57.5327 H       1  ZINC000151820600    0.0700
     36 H36       -11.7806   -1.7902   55.1609 H       1  ZINC000151820600    0.4000
     37 H37       -13.8871    1.2768   52.8097 H       1  ZINC000151820600    0.4200
     38 H38       -14.4194    0.5878   47.7035 H       1  ZINC000151820600    0.0600
     39 H39       -13.1600    1.7909   47.3363 H       1  ZINC000151820600    0.0700
     40 H40       -12.7651    0.3612   48.3204 H       1  ZINC000151820600    0.0900
     41 H41       -15.2458    3.4508   49.9348 H       1  ZINC000151820600    0.0700
     42 H42       -14.6085    3.5951   48.2791 H       1  ZINC000151820600    0.0800
     43 H43       -15.8680    2.3920   48.6463 H       1  ZINC000151820600    0.0700
     44 H44       -11.8918    1.8473   50.1290 H       1  ZINC000151820600    0.0900
     45 H45       -12.2866    3.2769   49.1450 H       1  ZINC000151820600    0.0700
     46 H46       -12.9238    3.1326   50.8007 H       1  ZINC000151820600    0.0600
     47 H47       -11.8068    2.5232   53.1765 H       1  ZINC000151820600    0.1300
     48 H48        -9.6158    3.6205   52.9338 H       1  ZINC000151820600    0.1400
     49 H49        -7.5793    2.2610   52.6782 H       1  ZINC000151820600    0.1400
     50 H50        -9.9253   -1.2953   52.9165 H       1  ZINC000151820600    0.1400
@<TRIPOS>BOND
     1     1     2    1
     2     1    27    1
     3     1    28    1
     4     1    29    1
     5     2     3    2
     6     2     4    1
     7     4     5    1
     8     4    30    1
     9     4    31    1
    10     5     6    1
    11     5    32    1
    12     5    33    1
    13     6     7    1
    14     6    34    1
    15     6    35    1
    16     7     8   am
    17     7    36    1
    18     8     9    2
    19     8    10    1
    20    10    11    1
    21    10    12    1
    22    10    20    1
    23    12    13   am
    24    12    37    1
    25    13    14    2
    26    13    15    1
    27    15    16    1
    28    16    17    1
    29    16    18    1
    30    16    19    1
    31    17    38    1
    32    17    39    1
    33    17    40    1
    34    18    41    1
    35    18    42    1
    36    18    43    1
    37    19    44    1
    38    19    45    1
    39    19    46    1
    40    20    26   ar
    41    20    21   ar
    42    21    22   ar
    43    21    47    1
    44    22    23   ar
    45    22    48    1
    46    23    24   ar
    47    23    49    1
    48    24    25    1
    49    24    26   ar
    50    26    50    1
@<TRIPOS>SUBSTRUCTURE
     1 ZINC000151820600        1 TEMP              0 ****  ****    0 ROOT


##########                                Name:    ZINC000676564986
##########                DOCK_Rotatable_Bonds:                   5
##########                         Heavy_Atoms:                  25
##########                    Molecular_Weight:             347.444
##########                DOCK_Rotatable_Bonds:                   5
##########                       Formal_Charge:          -0.0100005
##########                     HBond_Acceptors:                   6
##########                        HBond_Donors:                   1
##########                         Heavy_Atoms:                  25
##########                          Grid_Score:          -30.005947
##########                     Grid_vdw_energy:          -30.450720
##########                      Grid_es_energy:            0.444772
##########           Internal_energy_repulsive:            3.879894

@<TRIPOS>MOLECULE
ZINC000676564986
 42 45 1 0 0
SMALL
USER_CHARGES


@<TRIPOS>ATOM
      1 C1         -4.9282    1.9042   51.2502 C.3     1  ZINC000676564986    0.0800
      2 N2         -6.0137    1.0010   51.6405 N.pl3   1  ZINC000676564986   -0.4800
      3 C3         -6.0143   -0.3571   51.5238 C.2     1  ZINC000676564986    0.2500
      4 N4         -7.1383   -0.8409   51.9667 N.2     1  ZINC000676564986   -0.4600
      5 C5         -7.9283    0.1731   52.3945 C.ar    1  ZINC000676564986   -0.1100
      6 C6         -9.2139    0.2550   52.9554 C.ar    1  ZINC000676564986    0.5100
      7 N7         -9.9624   -0.8871   53.1802 N.pl3   1  ZINC000676564986   -0.6900
      8 C8        -11.3134   -0.7797   53.7366 C.3     1  ZINC000676564986    0.1700
      9 C9        -11.2449   -0.8561   55.2402 C.ar    1  ZINC000676564986   -0.0800
     10 C10       -10.5800   -1.9055   55.8480 C.ar    1  ZINC000676564986   -0.1100
     11 C11       -10.5152   -1.9787   57.2254 C.ar    1  ZINC000676564986   -0.0700
     12 C12       -11.1193   -0.9964   58.0009 C.ar    1  ZINC000676564986   -0.1300
     13 S13       -11.0388   -1.0854   59.7588 S.3     1  ZINC000676564986   -0.0100
     14 C14       -12.7355   -1.1428   60.2309 C.ar    1  ZINC000676564986   -0.1000
     15 C15       -13.2045   -0.3163   61.2450 C.ar    1  ZINC000676564986   -0.1200
     16 C16       -14.5348   -0.3636   61.6120 C.ar    1  ZINC000676564986   -0.1000
     17 C17       -15.4001   -1.2320   60.9718 C.ar    1  ZINC000676564986   -0.1200
     18 C18       -14.9368   -2.0560   59.9622 C.ar    1  ZINC000676564986   -0.1000
     19 C19       -13.6089   -2.0104   59.5863 C.ar    1  ZINC000676564986   -0.1000
     20 C20       -11.7866    0.0565   57.3866 C.ar    1  ZINC000676564986   -0.0700
     21 C21       -11.8425    0.1263   56.0087 C.ar    1  ZINC000676564986   -0.1100
     22 N22        -9.6944    1.4548   53.2652 N.ar    1  ZINC000676564986   -0.5900
     23 C23        -8.9873    2.5499   53.0547 C.ar    1  ZINC000676564986    0.3600
     24 N24        -7.7794    2.5214   52.5316 N.ar    1  ZINC000676564986   -0.5600
     25 C25        -7.2139    1.3667   52.1958 C.ar    1  ZINC000676564986    0.3000
     26 H26        -4.2504    2.0428   52.0925 H       1  ZINC000676564986    0.0800
     27 H27        -4.3815    1.4739   50.4110 H       1  ZINC000676564986    0.0900
     28 H28        -5.3449    2.8677   50.9568 H       1  ZINC000676564986    0.0900
     29 H29        -5.2020   -0.9449   51.1225 H       1  ZINC000676564986    0.2200
     30 H30        -9.5926   -1.7587   52.9694 H       1  ZINC000676564986    0.4200
     31 H31       -11.7535    0.1725   53.4408 H       1  ZINC000676564986    0.0800
     32 H32       -11.9280   -1.5969   53.3590 H       1  ZINC000676564986    0.0800
     33 H33       -10.1110   -2.6687   55.2447 H       1  ZINC000676564986    0.1300
     34 H34        -9.9962   -2.7986   57.6994 H       1  ZINC000676564986    0.1400
     35 H35       -12.5293    0.3618   61.7456 H       1  ZINC000676564986    0.1200
     36 H36       -14.8999    0.2781   62.4002 H       1  ZINC000676564986    0.1300
     37 H37       -16.4400   -1.2671   61.2612 H       1  ZINC000676564986    0.1300
     38 H38       -15.6153   -2.7329   59.4645 H       1  ZINC000676564986    0.1300
     39 H39       -13.2478   -2.6538   58.7977 H       1  ZINC000676564986    0.1300
     40 H40       -12.2572    0.8217   57.9862 H       1  ZINC000676564986    0.1300
     41 H41       -12.3608    0.9443   55.5307 H       1  ZINC000676564986    0.1300
     42 H42        -9.4158    3.5047   53.3211 H       1  ZINC000676564986    0.2000
@<TRIPOS>BOND
     1     1     2    1
     2     1    26    1
     3     1    27    1
     4     1    28    1
     5     2    25    1
     6     2     3    1
     7     3     4    2
     8     3    29    1
     9     4     5    1
    10     5    25   ar
    11     5     6   ar
    12     6     7    1
    13     6    22   ar
    14     7     8    1
    15     7    30    1
    16     8     9    1
    17     8    31    1
    18     8    32    1
    19     9    21   ar
    20     9    10   ar
    21    10    11   ar
    22    10    33    1
    23    11    12   ar
    24    11    34    1
    25    12    13    1
    26    12    20   ar
    27    13    14    1
    28    14    19   ar
    29    14    15   ar
    30    15    16   ar
    31    15    35    1
    32    16    17   ar
    33    16    36    1
    34    17    18   ar
    35    17    37    1
    36    18    19   ar
    37    18    38    1
    38    19    39    1
    39    20    21   ar
    40    20    40    1
    41    21    41    1
    42    22    23   ar
    43    23    24   ar
    44    23    42    1
    45    24    25   ar
@<TRIPOS>SUBSTRUCTURE
     1 ZINC000676564986        1 TEMP              0 ****  ****    0 ROOT


##########                                Name:    ZINC000484424341
##########                DOCK_Rotatable_Bonds:                   7
##########                         Heavy_Atoms:                  26
##########                    Molecular_Weight:             359.425
##########                DOCK_Rotatable_Bonds:                   7
##########                       Formal_Charge:          -0.0100009
##########                     HBond_Acceptors:                   7
##########                        HBond_Donors:                   1
##########                         Heavy_Atoms:                  26
##########                          Grid_Score:          -29.974472
##########                     Grid_vdw_energy:          -28.029661
##########                      Grid_es_energy:           -1.944810
##########           Internal_energy_repulsive:           17.095810

@<TRIPOS>MOLECULE
ZINC000484424341
 51 53 1 0 0
SMALL
USER_CHARGES


@<TRIPOS>ATOM
      1 C1         -5.9590   -0.1174   51.6282 C.3     1  ZINC000484424341    0.0300
      2 O2         -4.7715    0.5999   51.2855 O.3     1  ZINC000484424341   -0.3800
      3 C3         -4.8911    2.0179   51.4154 C.3     1  ZINC000484424341    0.1300
      4 H4         -5.7339    2.2533   52.0653 H       1  ZINC000484424341    0.0700
      5 C5         -5.1215    2.6388   50.0362 C.3     1  ZINC000484424341   -0.1700
      6 C6         -3.6252    2.5762   52.0125 C.ar    1  ZINC000484424341   -0.0700
      7 C7         -3.6904    3.6150   52.9227 C.ar    1  ZINC000484424341   -0.1000
      8 C8         -2.5310    4.1304   53.4732 C.ar    1  ZINC000484424341   -0.1000
      9 C9         -1.3037    3.6087   53.1154 C.ar    1  ZINC000484424341   -0.1100
     10 C10        -1.2343    2.5646   52.2010 C.ar    1  ZINC000484424341    0.1400
     11 N11         0.0058    2.0340   51.8369 N.am    1  ZINC000484424341   -0.6400
     12 C12         0.4432    2.1527   50.5676 C.2     1  ZINC000484424341    0.5100
     13 O13        -0.2402    2.7207   49.7408 O.2     1  ZINC000484424341   -0.4900
     14 C14         1.7689    1.5855   50.1785 C.2     1  ZINC000484424341    0.5200
     15 O15         1.9086    1.0577   49.0945 O.2     1  ZINC000484424341   -0.5200
     16 N16         2.8101    1.6598   51.0311 N.am    1  ZINC000484424341   -0.5800
     17 C17         4.1637    1.1451   50.7774 C.3     1  ZINC000484424341    0.1100
     18 C18         5.0207    1.4794   52.0165 C.3     1  ZINC000484424341   -0.1500
     19 C19         4.2513    2.6618   52.6624 C.3     1  ZINC000484424341    0.1500
     20 H20         4.5077    3.6050   52.1799 H       1  ZINC000484424341    0.1100
     21 N21         4.5033    2.7273   54.1041 N.am    1  ZINC000484424341   -0.6100
     22 C22         3.4916    3.0818   55.1065 C.3     1  ZINC000484424341    0.1000
     23 C23         4.0656    2.6035   56.4585 C.3     1  ZINC000484424341   -0.1300
     24 C24         5.5865    2.6238   56.1802 C.3     1  ZINC000484424341   -0.1600
     25 C25         5.6896    2.4649   54.6793 C.2     1  ZINC000484424341    0.5200
     26 O26         6.6977    2.1534   54.0814 O.2     1  ZINC000484424341   -0.5200
     27 C27         2.7820    2.2763   52.3699 C.3     1  ZINC000484424341    0.0900
     28 C28        -2.4011    2.0458   51.6543 C.ar    1  ZINC000484424341   -0.1300
     29 H29        -6.7744    0.1976   50.9771 H       1  ZINC000484424341    0.0400
     30 H30        -5.7864   -1.1865   51.5033 H       1  ZINC000484424341    0.0900
     31 H31        -6.2216    0.0894   52.6657 H       1  ZINC000484424341    0.0400
     32 H32        -4.2787    2.4034   49.3864 H       1  ZINC000484424341    0.0700
     33 H33        -6.0372    2.2350   49.6043 H       1  ZINC000484424341    0.0600
     34 H34        -5.2128    3.7205   50.1354 H       1  ZINC000484424341    0.0700
     35 H35        -4.6490    4.0252   53.2041 H       1  ZINC000484424341    0.1300
     36 H36        -2.5856    4.9421   54.1836 H       1  ZINC000484424341    0.1300
     37 H37        -0.3987    4.0117   53.5453 H       1  ZINC000484424341    0.1300
     38 H38         0.5520    1.5802   52.4977 H       1  ZINC000484424341    0.4200
     39 H39         4.1284    0.0655   50.6313 H       1  ZINC000484424341    0.0800
     40 H40         4.5842    1.6271   49.8948 H       1  ZINC000484424341    0.0800
     41 H41         5.0629    0.6291   52.6971 H       1  ZINC000484424341    0.0900
     42 H42         6.0233    1.7878   51.7201 H       1  ZINC000484424341    0.0900
     43 H43         3.3382    4.1608   55.1223 H       1  ZINC000484424341    0.0800
     44 H44         2.5533    2.5698   54.8927 H       1  ZINC000484424341    0.0800
     45 H45         3.8063    3.2960   57.2593 H       1  ZINC000484424341    0.0900
     46 H46         3.7252    1.5946   56.6918 H       1  ZINC000484424341    0.0800
     47 H47         6.0198    3.5722   56.4979 H       1  ZINC000484424341    0.1100
     48 H48         6.0776    1.7912   56.6838 H       1  ZINC000484424341    0.1000
     49 H49         2.1497    3.1642   52.3692 H       1  ZINC000484424341    0.0900
     50 H50         2.4251    1.5560   53.1060 H       1  ZINC000484424341    0.0900
     51 H51        -2.3509    1.2341   50.9437 H       1  ZINC000484424341    0.1300
@<TRIPOS>BOND
     1     1     2    1
     2     1    29    1
     3     1    30    1
     4     1    31    1
     5     2     3    1
     6     3     4    1
     7     3     5    1
     8     3     6    1
     9     5    32    1
    10     5    33    1
    11     5    34    1
    12     6    28   ar
    13     6     7   ar
    14     7     8   ar
    15     7    35    1
    16     8     9   ar
    17     8    36    1
    18     9    10   ar
    19     9    37    1
    20    10    11    1
    21    10    28   ar
    22    11    12   am
    23    11    38    1
    24    12    13    2
    25    12    14    1
    26    14    15    2
    27    14    16   am
    28    16    27    1
    29    16    17    1
    30    17    18    1
    31    17    39    1
    32    17    40    1
    33    18    19    1
    34    18    41    1
    35    18    42    1
    36    19    20    1
    37    19    21    1
    38    19    27    1
    39    21    25   am
    40    21    22    1
    41    22    23    1
    42    22    43    1
    43    22    44    1
    44    23    24    1
    45    23    45    1
    46    23    46    1
    47    24    25    1
    48    24    47    1
    49    24    48    1
    50    25    26    2
    51    27    49    1
    52    27    50    1
    53    28    51    1
@<TRIPOS>SUBSTRUCTURE
     1 ZINC000484424341        1 TEMP              0 ****  ****    0 ROOT


##########                                Name:    ZINC001018437438
##########                DOCK_Rotatable_Bonds:                   8
##########                         Heavy_Atoms:                  24
##########                    Molecular_Weight:              333.39
##########                DOCK_Rotatable_Bonds:                   8
##########                       Formal_Charge:        -4.17233e-07
##########                     HBond_Acceptors:                   8
##########                        HBond_Donors:                   4
##########                         Heavy_Atoms:                  24
##########                          Grid_Score:          -29.973862
##########                     Grid_vdw_energy:          -29.441921
##########                      Grid_es_energy:           -0.531940
##########           Internal_energy_repulsive:           88.256393

@<TRIPOS>MOLECULE
ZINC001018437438
 47 49 1 0 0
SMALL
USER_CHARGES


@<TRIPOS>ATOM
      1 C1         -2.0092    3.5300   51.4577 C.3     1  ZINC001018437438   -0.1400
      2 C2         -3.5247    3.3350   51.3805 C.3     1  ZINC001018437438    0.1400
      3 H3         -3.9560    4.0834   50.7157 H       1  ZINC001018437438    0.0700
      4 C4         -3.8355    1.9333   50.8462 C.3     1  ZINC001018437438   -0.1300
      5 C5         -5.3460    1.6937   50.9021 C.3     1  ZINC001018437438   -0.1300
      6 C6         -5.8235    1.7741   52.3539 C.3     1  ZINC001018437438    0.1300
      7 H7         -5.2955    1.0316   52.9522 H       1  ZINC001018437438    0.1000
      8 N8         -7.2639    1.5128   52.4101 N.am    1  ZINC001018437438   -0.7200
      9 C9         -7.7149    0.2501   52.5465 C.2     1  ZINC001018437438    0.6000
     10 O10        -6.9261   -0.6724   52.6245 O.2     1  ZINC001018437438   -0.5100
     11 C11        -9.1619   -0.0125   52.6011 C.2     1  ZINC001018437438   -0.0400
     12 C12       -10.1580    0.8895   52.9326 C.2     1  ZINC001018437438   -0.1400
     13 C13       -11.3526    0.1714   52.8418 C.2     1  ZINC001018437438    0.0600
     14 C14       -12.7343    0.7107   53.1076 C.3     1  ZINC001018437438   -0.0800
     15 C15       -13.4151    1.4945   51.9838 C.3     1  ZINC001018437438   -0.1700
     16 C16       -13.8975    0.0856   52.3346 C.3     1  ZINC001018437438   -0.1600
     17 N17       -11.0588   -1.0527   52.4840 N.2     1  ZINC001018437438   -0.2600
     18 N18        -9.7915   -1.1938   52.3292 N.pl3   1  ZINC001018437438   -0.3800
     19 C19        -5.5352    3.1739   52.9053 C.3     1  ZINC001018437438    0.1000
     20 N20        -4.1080    3.4729   52.7218 N.am    1  ZINC001018437438   -0.6100
     21 C21        -3.3482    3.8613   53.7650 C.2     1  ZINC001018437438    0.5200
     22 O22        -2.1705    4.1006   53.6015 O.2     1  ZINC001018437438   -0.4800
     23 C23        -3.9619    3.9980   55.1346 C.3     1  ZINC001018437438   -0.1700
     24 C24        -2.8807    4.2922   56.1424 C.2     1  ZINC001018437438    0.5200
     25 N25        -1.9902    3.3363   56.4738 N.am    1  ZINC001018437438   -0.8600
     26 O26        -2.8118    5.3892   56.6550 O.2     1  ZINC001018437438   -0.5000
     27 H27        -1.5922    2.8474   52.1982 H       1  ZINC001018437438    0.0700
     28 H28        -1.5662    3.3238   50.4834 H       1  ZINC001018437438    0.0500
     29 H29        -1.7894    4.5578   51.7465 H       1  ZINC001018437438    0.0800
     30 H30        -3.4924    1.8529   49.8147 H       1  ZINC001018437438    0.0900
     31 H31        -3.3262    1.1893   51.4586 H       1  ZINC001018437438    0.0700
     32 H32        -5.8563    2.4530   50.3094 H       1  ZINC001018437438    0.0700
     33 H33        -5.5723    0.7064   50.4995 H       1  ZINC001018437438    0.0800
     34 H34        -7.8931    2.2485   52.3491 H       1  ZINC001018437438    0.4000
     35 H35       -10.0373    1.9278   53.2039 H       1  ZINC001018437438    0.1700
     36 H36       -12.9251    1.0306   54.1320 H       1  ZINC001018437438    0.1200
     37 H37       -14.0538    2.3306   52.2687 H       1  ZINC001018437438    0.1000
     38 H38       -12.8635    1.6202   51.0521 H       1  ZINC001018437438    0.1000
     39 H39       -13.6632   -0.7157   51.6339 H       1  ZINC001018437438    0.1000
     40 H40       -14.8534   -0.0053   52.8504 H       1  ZINC001018437438    0.1000
     41 H41        -9.3487   -2.0157   52.0661 H       1  ZINC001018437438    0.4400
     42 H42        -6.1327    3.9091   52.3663 H       1  ZINC001018437438    0.0700
     43 H43        -5.7820    3.2066   53.9665 H       1  ZINC001018437438    0.0900
     44 H44        -4.6850    4.8135   55.1290 H       1  ZINC001018437438    0.1200
     45 H45        -4.4646    3.0686   55.4020 H       1  ZINC001018437438    0.1200
     46 H46        -1.2950    3.5252   57.1232 H       1  ZINC001018437438    0.4000
     47 H47        -2.0447    2.4594   56.0628 H       1  ZINC001018437438    0.4000
@<TRIPOS>BOND
     1     1     2    1
     2     1    27    1
     3     1    28    1
     4     1    29    1
     5     2     3    1
     6     2    20    1
     7     2     4    1
     8     4     5    1
     9     4    30    1
    10     4    31    1
    11     5     6    1
    12     5    32    1
    13     5    33    1
    14     6     7    1
    15     6     8    1
    16     6    19    1
    17     8     9   am
    18     8    34    1
    19     9    10    2
    20     9    11    1
    21    11    18    1
    22    11    12    2
    23    12    13    1
    24    12    35    1
    25    13    14    1
    26    13    17    2
    27    14    16    1
    28    14    15    1
    29    14    36    1
    30    15    16    1
    31    15    37    1
    32    15    38    1
    33    16    39    1
    34    16    40    1
    35    17    18    1
    36    18    41    1
    37    19    20    1
    38    19    42    1
    39    19    43    1
    40    20    21   am
    41    21    22    2
    42    21    23    1
    43    23    24    1
    44    23    44    1
    45    23    45    1
    46    24    25   am
    47    24    26    2
    48    25    46    1
    49    25    47    1
@<TRIPOS>SUBSTRUCTURE
     1 ZINC001018437438        1 TEMP              0 ****  ****    0 ROOT


##########                                Name:    ZINC000888733009
##########                DOCK_Rotatable_Bonds:                   6
##########                         Heavy_Atoms:                  25
##########                    Molecular_Weight:             360.434
##########                DOCK_Rotatable_Bonds:                   6
##########                       Formal_Charge:        -1.02073e-06
##########                     HBond_Acceptors:                   7
##########                        HBond_Donors:                   2
##########                         Heavy_Atoms:                  25
##########                          Grid_Score:          -29.902933
##########                     Grid_vdw_energy:          -28.251915
##########                      Grid_es_energy:           -1.651018
##########           Internal_energy_repulsive:           23.783571

@<TRIPOS>MOLECULE
ZINC000888733009
 45 48 1 0 0
SMALL
USER_CHARGES


@<TRIPOS>ATOM
      1 C1         -7.3143    0.5963   52.1236 C.3     1  ZINC000888733009   -0.1500
      2 C2         -6.2586    0.9997   51.0921 C.3     1  ZINC000888733009    0.0700
      3 H3         -6.3588    0.3941   50.1914 H       1  ZINC000888733009    0.0700
      4 C4         -4.8384    0.8479   51.6877 C.3     1  ZINC000888733009   -0.1300
      5 C5         -4.0720    2.0425   51.1042 C.3     1  ZINC000888733009   -0.1100
      6 C6         -3.3043    2.8959   52.1105 C.3     1  ZINC000888733009   -0.1300
      7 C7         -2.2178    3.0374   51.0285 C.3     1  ZINC000888733009    0.1200
      8 N8         -0.8530    2.9461   51.5531 N.am    1  ZINC000888733009   -0.7100
      9 C9          0.1647    2.6221   50.7310 C.2     1  ZINC000888733009    0.5900
     10 O10        -0.0500    2.4068   49.5524 O.2     1  ZINC000888733009   -0.5600
     11 C11         1.5300    2.5290   51.2563 C.2     1  ZINC000888733009   -0.2400
     12 C12         2.6067    2.1329   50.5051 C.2     1  ZINC000888733009    0.0800
     13 N13         2.5455    1.7739   49.1687 N.am    1  ZINC000888733009   -0.6100
     14 C14         3.6557    1.3489   48.5336 C.2     1  ZINC000888733009    0.6000
     15 O15         4.7116    1.2789   49.1347 O.2     1  ZINC000888733009   -0.4900
     16 C16         3.5913    0.9707   47.1188 C.2     1  ZINC000888733009   -0.0900
     17 C17         4.6470    0.5872   46.3417 C.2     1  ZINC000888733009   -0.1000
     18 C18         4.1313    0.3195   45.0641 C.2     1  ZINC000888733009   -0.2300
     19 C19         2.8004    0.5483   45.1164 C.2     1  ZINC000888733009    0.0100
     20 O20         2.4780    0.9349   46.3575 O.3     1  ZINC000888733009   -0.1600
     21 S21         4.0307    2.1433   51.4416 S.3     1  ZINC000888733009    0.3000
     22 C22         3.1773    2.6892   52.8743 C.2     1  ZINC000888733009   -0.2800
     23 C23         1.8866    2.8510   52.6206 C.2     1  ZINC000888733009   -0.0900
     24 C24        -2.7393    1.7157   50.4352 C.3     1  ZINC000888733009   -0.1400
     25 C25        -5.0920    2.7893   50.2345 C.3     1  ZINC000888733009    0.0700
     26 O26        -6.3804    2.4034   50.7706 O.3     1  ZINC000888733009   -0.3700
     27 H27        -8.3086    0.7341   51.6988 H       1  ZINC000888733009    0.0600
     28 H28        -7.1766   -0.4506   52.3940 H       1  ZINC000888733009    0.0700
     29 H29        -7.2096    1.2180   53.0128 H       1  ZINC000888733009    0.0600
     30 H30        -4.8705    0.9075   52.7757 H       1  ZINC000888733009    0.0800
     31 H31        -4.3867   -0.0909   51.3674 H       1  ZINC000888733009    0.0800
     32 H32        -3.8009    3.8343   52.3574 H       1  ZINC000888733009    0.0800
     33 H33        -2.9757    2.3443   52.9913 H       1  ZINC000888733009    0.0900
     34 H34        -2.3629    3.8975   50.3749 H       1  ZINC000888733009    0.1200
     35 H35        -0.6817    3.1189   52.4921 H       1  ZINC000888733009    0.4000
     36 H36         1.7037    1.8285   48.6899 H       1  ZINC000888733009    0.4400
     37 H37         5.6788    0.5060   46.6503 H       1  ZINC000888733009    0.1700
     38 H38         4.6925   -0.0076   44.2012 H       1  ZINC000888733009    0.1600
     39 H39         2.1098    0.4338   44.2940 H       1  ZINC000888733009    0.2200
     40 H40         3.6417    2.8726   53.8320 H       1  ZINC000888733009    0.1700
     41 H41         1.1721    3.1818   53.3599 H       1  ZINC000888733009    0.1500
     42 H42        -2.2510    0.8303   50.8422 H       1  ZINC000888733009    0.0900
     43 H43        -2.7855    1.7129   49.3461 H       1  ZINC000888733009    0.0800
     44 H44        -4.9502    3.8665   50.3220 H       1  ZINC000888733009    0.0900
     45 H45        -5.0059    2.4767   49.1939 H       1  ZINC000888733009    0.0700
@<TRIPOS>BOND
     1     1     2    1
     2     1    27    1
     3     1    28    1
     4     1    29    1
     5     2     3    1
     6     2    26    1
     7     2     4    1
     8     4     5    1
     9     4    30    1
    10     4    31    1
    11     5    24    1
    12     5     6    1
    13     5    25    1
    14     6     7    1
    15     6    32    1
    16     6    33    1
    17     7     8    1
    18     7    24    1
    19     7    34    1
    20     8     9   am
    21     8    35    1
    22     9    10    2
    23     9    11    1
    24    11    23    1
    25    11    12    2
    26    12    13    1
    27    12    21    1
    28    13    14   am
    29    13    36    1
    30    14    15    2
    31    14    16    1
    32    16    20    1
    33    16    17    2
    34    17    18    1
    35    17    37    1
    36    18    19    2
    37    18    38    1
    38    19    20    1
    39    19    39    1
    40    21    22    1
    41    22    23    2
    42    22    40    1
    43    23    41    1
    44    24    42    1
    45    24    43    1
    46    25    26    1
    47    25    44    1
    48    25    45    1
@<TRIPOS>SUBSTRUCTURE
     1 ZINC000888733009        1 TEMP              0 ****  ****    0 ROOT


##########                                Name:    ZINC000573650873
##########                DOCK_Rotatable_Bonds:                  10
##########                         Heavy_Atoms:                  28
##########                    Molecular_Weight:             418.843
##########                DOCK_Rotatable_Bonds:                  10
##########                       Formal_Charge:          -0.0500001
##########                     HBond_Acceptors:                   9
##########                        HBond_Donors:                   1
##########                         Heavy_Atoms:                  28
##########                          Grid_Score:          -29.888868
##########                     Grid_vdw_energy:          -29.334436
##########                      Grid_es_energy:           -0.554431
##########           Internal_energy_repulsive:           15.932524

@<TRIPOS>MOLECULE
ZINC000573650873
 50 51 1 0 0
SMALL
USER_CHARGES


@<TRIPOS>ATOM
      1 C1        -11.7981    0.9007   52.9908 C.3     1  ZINC000573650873   -0.1400
      2 C2        -10.3825    0.5508   53.4541 C.3     1  ZINC000573650873    0.0100
      3 C3        -10.2818    0.7345   54.9697 C.3     1  ZINC000573650873   -0.1400
      4 C4        -10.0734   -0.9041   53.0951 C.3     1  ZINC000573650873   -0.1500
      5 C5         -9.3918    1.4580   52.7712 C.2     1  ZINC000573650873   -0.0100
      6 C6         -8.0766    1.2119   52.5691 C.2     1  ZINC000573650873   -0.1800
      7 C7         -7.6112    2.3730   51.8914 C.2     1  ZINC000573650873   -0.0300
      8 C8         -6.2288    2.6382   51.4237 C.2     1  ZINC000573650873    0.6000
      9 O9         -5.7993    2.0656   50.4420 O.2     1  ZINC000573650873   -0.5100
     10 N10        -5.4492    3.5144   52.0878 N.am    1  ZINC000573650873   -0.5900
     11 C11        -4.0837    3.7763   51.6258 C.3     1  ZINC000573650873    0.1200
     12 C12        -3.1254    2.7746   52.2733 C.3     1  ZINC000573650873   -0.1000
     13 C13        -1.9070    2.6099   51.4020 C.ar    1  ZINC000573650873   -0.0800
     14 C14        -1.9378    1.7393   50.3285 C.ar    1  ZINC000573650873   -0.1000
     15 C15        -0.8206    1.5877   49.5290 C.ar    1  ZINC000573650873   -0.1100
     16 C16         0.3286    2.3074   49.8031 C.ar    1  ZINC000573650873   -0.0400
     17 Cl17        1.7321    2.1181   48.7990 Cl      1  ZINC000573650873   -0.0700
     18 C18         0.3590    3.1786   50.8775 C.ar    1  ZINC000573650873   -0.1100
     19 C19        -0.7608    3.3335   51.6730 C.ar    1  ZINC000573650873   -0.1000
     20 C20        -5.9670    4.2047   53.2716 C.3     1  ZINC000573650873    0.0700
     21 C21        -5.8027    3.3059   54.4988 C.3     1  ZINC000573650873    0.0600
     22 H22        -5.8412    2.2609   54.1915 H       1  ZINC000573650873    0.1400
     23 O23        -4.5440    3.5736   55.1202 O.3     1  ZINC000573650873   -0.5200
     24 C24        -6.9320    3.5874   55.4920 C.3     1  ZINC000573650873    0.4300
     25 F25        -6.8749    4.9255   55.8961 F       1  ZINC000573650873   -0.1700
     26 F26        -8.1646    3.3374   54.8795 F       1  ZINC000573650873   -0.1700
     27 F27        -6.7891    2.7565   56.6084 F       1  ZINC000573650873   -0.1800
     28 N28        -8.6502    3.1604   51.7633 N.2     1  ZINC000573650873   -0.3400
     29 O29        -9.6432    2.6630   52.2410 O.3     1  ZINC000573650873    0.1300
     30 H30       -12.0183    1.9371   53.2466 H       1  ZINC000573650873    0.0600
     31 H31       -11.8697    0.7697   51.9110 H       1  ZINC000573650873    0.0600
     32 H32       -12.5146    0.2444   53.4846 H       1  ZINC000573650873    0.0700
     33 H33       -10.9985    0.0783   55.4635 H       1  ZINC000573650873    0.0700
     34 H34        -9.2734    0.4852   55.2996 H       1  ZINC000573650873    0.0600
     35 H35       -10.5021    1.7709   55.2255 H       1  ZINC000573650873    0.0600
     36 H36       -10.1450   -1.0350   52.0153 H       1  ZINC000573650873    0.0600
     37 H37        -9.0650   -1.1534   53.4251 H       1  ZINC000573650873    0.0600
     38 H38       -10.7900   -1.5602   53.5890 H       1  ZINC000573650873    0.0700
     39 H39        -7.5115    0.3374   52.8558 H       1  ZINC000573650873    0.1800
     40 H40        -4.0407    3.6717   50.5417 H       1  ZINC000573650873    0.0900
     41 H41        -3.7938    4.7892   51.9050 H       1  ZINC000573650873    0.1000
     42 H42        -2.8237    3.1423   53.2541 H       1  ZINC000573650873    0.0800
     43 H43        -3.6257    1.8125   52.3840 H       1  ZINC000573650873    0.0800
     44 H44        -2.8349    1.1771   50.1148 H       1  ZINC000573650873    0.1300
     45 H45        -0.8447    0.9072   48.6907 H       1  ZINC000573650873    0.1300
     46 H46         1.2559    3.7405   51.0922 H       1  ZINC000573650873    0.1300
     47 H47        -0.7374    4.0137   52.5115 H       1  ZINC000573650873    0.1300
     48 H48        -5.4133    5.1313   53.4231 H       1  ZINC000573650873    0.1000
     49 H49        -7.0231    4.4322   53.1266 H       1  ZINC000573650873    0.1200
     50 H50        -4.3443    2.9955   55.8693 H       1  ZINC000573650873    0.3900
@<TRIPOS>BOND
     1     1     2    1
     2     1    30    1
     3     1    31    1
     4     1    32    1
     5     2     3    1
     6     2     4    1
     7     2     5    1
     8     3    33    1
     9     3    34    1
    10     3    35    1
    11     4    36    1
    12     4    37    1
    13     4    38    1
    14     5    29    1
    15     5     6    2
    16     6     7    1
    17     6    39    1
    18     7     8    1
    19     7    28    2
    20     8     9    2
    21     8    10   am
    22    10    11    1
    23    10    20    1
    24    11    12    1
    25    11    40    1
    26    11    41    1
    27    12    13    1
    28    12    42    1
    29    12    43    1
    30    13    19   ar
    31    13    14   ar
    32    14    15   ar
    33    14    44    1
    34    15    16   ar
    35    15    45    1
    36    16    17    1
    37    16    18   ar
    38    18    19   ar
    39    18    46    1
    40    19    47    1
    41    20    21    1
    42    20    48    1
    43    20    49    1
    44    21    22    1
    45    21    23    1
    46    21    24    1
    47    23    50    1
    48    24    25    1
    49    24    26    1
    50    24    27    1
    51    28    29    1
@<TRIPOS>SUBSTRUCTURE
     1 ZINC000573650873        1 TEMP              0 ****  ****    0 ROOT


##########                                Name:    ZINC000866717058
##########                DOCK_Rotatable_Bonds:                   7
##########                         Heavy_Atoms:                  25
##########                    Molecular_Weight:             380.388
##########                DOCK_Rotatable_Bonds:                   7
##########                       Formal_Charge:                0.04
##########                     HBond_Acceptors:                  10
##########                        HBond_Donors:                   1
##########                         Heavy_Atoms:                  25
##########                          Grid_Score:          -29.859144
##########                     Grid_vdw_energy:          -27.707558
##########                      Grid_es_energy:           -2.151587
##########           Internal_energy_repulsive:           11.424767

@<TRIPOS>MOLECULE
ZINC000866717058
 44 45 1 0 0
SMALL
USER_CHARGES


@<TRIPOS>ATOM
      1 C1         -5.9964   -0.2905   51.8250 C.3     1  ZINC000866717058   -0.1100
      2 C2         -6.8642    0.9361   51.9402 C.ar    1  ZINC000866717058    0.2400
      3 N3         -8.0769    0.8321   52.4415 N.ar    1  ZINC000866717058   -0.5500
      4 C4         -8.8747    1.8824   52.5619 C.ar    1  ZINC000866717058    0.3500
      5 O5        -10.1145    1.7227   53.0849 O.3     1  ZINC000866717058   -0.2800
      6 C6        -10.2747    0.7044   54.0746 C.3     1  ZINC000866717058    0.0500
      7 H7         -9.3501    0.1339   54.1621 H       1  ZINC000866717058    0.1300
      8 C8        -10.6051    1.3501   55.4218 C.3     1  ZINC000866717058   -0.1700
      9 C9        -11.4140   -0.2308   53.6642 C.3     1  ZINC000866717058    0.4600
     10 F10       -11.3037   -0.5304   52.3021 F       1  ZINC000866717058   -0.1700
     11 F11       -11.3386   -1.4125   54.4092 F       1  ZINC000866717058   -0.1700
     12 F12       -12.6415    0.3954   53.9060 F       1  ZINC000866717058   -0.1700
     13 C13        -8.4581    3.1473   52.1594 C.ar    1  ZINC000866717058   -0.1900
     14 C14        -7.1943    3.3039   51.6279 C.ar    1  ZINC000866717058    0.0000
     15 C15        -6.3724    2.1726   51.5195 C.ar    1  ZINC000866717058   -0.2300
     16 C16        -5.0118    2.2862   50.9583 C.2     1  ZINC000866717058    0.5800
     17 O17        -4.8348    2.1573   49.7623 O.2     1  ZINC000866717058   -0.5200
     18 N18        -3.9657    2.5325   51.7717 N.am    1  ZINC000866717058   -0.7400
     19 C19        -2.6152    2.6435   51.2149 C.3     1  ZINC000866717058    0.1400
     20 C20        -1.8767    3.7982   51.8947 C.3     1  ZINC000866717058   -0.5700
     21 H21        -2.2953    4.7569   51.5884 H       1  ZINC000866717058    0.1500
     22 C22        -1.9197    3.6468   53.4372 C.3     1  ZINC000866717058   -0.1100
     23 C23        -0.7848    4.5221   53.9973 C.3     1  ZINC000866717058   -0.1200
     24 C24         0.4993    4.2418   53.1917 C.3     1  ZINC000866717058   -0.5900
     25 S25        -0.0818    3.7262   51.5313 S.o2    1  ZINC000866717058    2.3700
     26 O26         0.2945    2.3758   51.2991 O.2     1  ZINC000866717058   -0.9200
     27 O27         0.2533    4.7296   50.5826 O.2     1  ZINC000866717058   -0.9300
     28 H28        -5.3296   -0.3459   52.6855 H       1  ZINC000866717058    0.0900
     29 H29        -6.6262   -1.1796   51.7957 H       1  ZINC000866717058    0.0700
     30 H30        -5.4057   -0.2332   50.9107 H       1  ZINC000866717058    0.1100
     31 H31       -10.7275    0.5733   56.1767 H       1  ZINC000866717058    0.0900
     32 H32        -9.7936    2.0163   55.7142 H       1  ZINC000866717058    0.0900
     33 H33       -11.5298    1.9204   55.3343 H       1  ZINC000866717058    0.0800
     34 H34        -9.1165    3.9973   52.2615 H       1  ZINC000866717058    0.1600
     35 H35        -6.8452    4.2743   51.3071 H       1  ZINC000866717058    0.1500
     36 H36        -4.1071    2.6365   52.7256 H       1  ZINC000866717058    0.4000
     37 H37        -2.0734    1.7137   51.3879 H       1  ZINC000866717058    0.1000
     38 H38        -2.6783    2.8332   50.1434 H       1  ZINC000866717058    0.1000
     39 H39        -2.8805    3.9915   53.8195 H       1  ZINC000866717058    0.1100
     40 H40        -1.7591    2.6050   53.7146 H       1  ZINC000866717058    0.0900
     41 H41        -1.0535    5.5744   53.9040 H       1  ZINC000866717058    0.0900
     42 H42        -0.6192    4.2799   55.0470 H       1  ZINC000866717058    0.1000
     43 H43         1.1030    5.1461   53.1148 H       1  ZINC000866717058    0.1400
     44 H44         1.0727    3.4417   53.6598 H       1  ZINC000866717058    0.1400
@<TRIPOS>BOND
     1     1     2    1
     2     1    28    1
     3     1    29    1
     4     1    30    1
     5     2    15   ar
     6     2     3   ar
     7     3     4   ar
     8     4     5    1
     9     4    13   ar
    10     5     6    1
    11     6     7    1
    12     6     8    1
    13     6     9    1
    14     8    31    1
    15     8    32    1
    16     8    33    1
    17     9    10    1
    18     9    11    1
    19     9    12    1
    20    13    14   ar
    21    13    34    1
    22    14    15   ar
    23    14    35    1
    24    15    16    1
    25    16    17    2
    26    16    18   am
    27    18    19    1
    28    18    36    1
    29    19    20    1
    30    19    37    1
    31    19    38    1
    32    20    21    1
    33    20    25    1
    34    20    22    1
    35    22    23    1
    36    22    39    1
    37    22    40    1
    38    23    24    1
    39    23    41    1
    40    23    42    1
    41    24    25    1
    42    24    43    1
    43    24    44    1
    44    25    26    2
    45    25    27    2
@<TRIPOS>SUBSTRUCTURE
     1 ZINC000866717058        1 TEMP              0 ****  ****    0 ROOT


##########                                Name:    ZINC001327099466
##########                DOCK_Rotatable_Bonds:                   7
##########                         Heavy_Atoms:                  27
##########                    Molecular_Weight:             374.483
##########                DOCK_Rotatable_Bonds:                   7
##########                       Formal_Charge:           0.0199998
##########                     HBond_Acceptors:                   7
##########                        HBond_Donors:                   1
##########                         Heavy_Atoms:                  27
##########                          Grid_Score:          -29.813625
##########                     Grid_vdw_energy:          -31.954346
##########                      Grid_es_energy:            2.140720
##########           Internal_energy_repulsive:           14.063251

@<TRIPOS>MOLECULE
ZINC001327099466
 57 60 1 0 0
SMALL
USER_CHARGES


@<TRIPOS>ATOM
      1 O1         -6.8963    3.0835   59.6766 O.2     1  ZINC001327099466   -0.4800
      2 C2         -6.8434    2.3573   58.7055 C.2     1  ZINC001327099466    0.5300
      3 N3         -7.3702    1.1179   58.7611 N.am    1  ZINC001327099466   -0.6000
      4 C4         -7.9729    0.6663   59.9404 C.2     1  ZINC001327099466    0.2900
      5 N5         -7.5525    0.9033   61.1612 N.2     1  ZINC001327099466   -0.3100
      6 N6         -8.4311    0.2776   62.0548 N.pl3   1  ZINC001327099466   -0.3500
      7 C7         -8.3275    0.2926   63.5160 C.3     1  ZINC001327099466    0.1700
      8 C8         -7.3844    1.4169   63.9489 C.3     1  ZINC001327099466   -0.1300
      9 C9         -7.2762    1.4327   65.4750 C.3     1  ZINC001327099466   -0.1200
     10 C10        -8.6610    1.6665   66.0821 C.3     1  ZINC001327099466   -0.1300
     11 C11        -9.6041    0.5422   65.6492 C.3     1  ZINC001327099466   -0.1200
     12 C12        -9.7123    0.5265   64.1231 C.3     1  ZINC001327099466   -0.1300
     13 C13        -9.3903   -0.3411   61.3342 C.2     1  ZINC001327099466    0.0700
     14 C14        -9.1372   -0.1147   60.0254 C.2     1  ZINC001327099466   -0.2700
     15 C15        -6.2001    2.8393   57.4468 C.2     1  ZINC001327099466    0.5100
     16 O16        -4.9943    2.7829   57.3215 O.2     1  ZINC001327099466   -0.5100
     17 N17        -6.9585    3.3370   56.4501 N.am    1  ZINC001327099466   -0.5700
     18 C18        -8.4195    3.4118   56.5870 C.3     1  ZINC001327099466    0.0400
     19 C19        -9.0639    2.7118   55.3864 C.3     1  ZINC001327099466   -0.1300
     20 C20        -8.5216    3.3239   54.0927 C.3     1  ZINC001327099466   -0.1200
     21 C21        -7.0078    3.1108   54.0209 C.3     1  ZINC001327099466    0.0800
     22 H22        -6.7883    2.0439   54.0613 H       1  ZINC001327099466    0.0700
     23 O23        -6.5070    3.6548   52.7981 O.3     1  ZINC001327099466   -0.3500
     24 C24        -5.4544    2.8886   52.2091 C.3     1  ZINC001327099466    0.0600
     25 C25        -5.9523    1.6893   51.3852 C.3     1  ZINC001327099466   -0.1600
     26 C26        -6.0066    2.6412   50.1786 C.3     1  ZINC001327099466   -0.1400
     27 C27        -4.9287    3.4768   50.8890 C.3     1  ZINC001327099466   -0.1400
     28 C28        -6.3397    3.8205   55.2083 C.3     1  ZINC001327099466    0.0900
     29 H29        -7.3314    0.5390   57.9838 H       1  ZINC001327099466    0.4300
     30 H30        -7.9357   -0.6637   63.8624 H       1  ZINC001327099466    0.1000
     31 H31        -6.3978    1.2503   63.5164 H       1  ZINC001327099466    0.0700
     32 H32        -7.7762    2.3733   63.6026 H       1  ZINC001327099466    0.0700
     33 H33        -6.8845    0.4763   65.8213 H       1  ZINC001327099466    0.0700
     34 H34        -6.6043    2.2337   65.7833 H       1  ZINC001327099466    0.0700
     35 H35        -8.5840    1.6777   67.1692 H       1  ZINC001327099466    0.0700
     36 H36        -9.0528    2.6229   65.7357 H       1  ZINC001327099466    0.0700
     37 H37        -9.2123   -0.4142   65.9956 H       1  ZINC001327099466    0.0700
     38 H38       -10.5907    0.7088   66.0817 H       1  ZINC001327099466    0.0700
     39 H39       -10.1041    1.4829   63.7767 H       1  ZINC001327099466    0.0700
     40 H40       -10.3842   -0.2745   63.8147 H       1  ZINC001327099466    0.0700
     41 H41       -10.2158   -0.9123   61.7326 H       1  ZINC001327099466    0.1800
     42 H42        -9.7231   -0.4755   59.1928 H       1  ZINC001327099466    0.1700
     43 H43        -8.7262    2.9151   57.5074 H       1  ZINC001327099466    0.1600
     44 H44        -8.7312    4.4560   56.6116 H       1  ZINC001327099466    0.0700
     45 H45        -8.8250    1.6487   55.4139 H       1  ZINC001327099466    0.0700
     46 H46       -10.1451    2.8434   55.4258 H       1  ZINC001327099466    0.0900
     47 H47        -8.9969    2.8443   53.2371 H       1  ZINC001327099466    0.0800
     48 H48        -8.7391    4.3919   54.0773 H       1  ZINC001327099466    0.0800
     49 H49        -4.6667    2.6357   52.9188 H       1  ZINC001327099466    0.0700
     50 H50        -5.2138    0.8944   51.2812 H       1  ZINC001327099466    0.0900
     51 H51        -6.9303    1.3219   51.6959 H       1  ZINC001327099466    0.0700
     52 H52        -5.6646    2.1873   49.2486 H       1  ZINC001327099466    0.0700
     53 H53        -6.9604    3.1581   50.0728 H       1  ZINC001327099466    0.0800
     54 H54        -5.0804    4.5525   50.7992 H       1  ZINC001327099466    0.0800
     55 H55        -3.9104    3.1705   50.6495 H       1  ZINC001327099466    0.0900
     56 H56        -6.4826    4.8973   55.1178 H       1  ZINC001327099466    0.0900
     57 H57        -5.2742    3.5908   55.2189 H       1  ZINC001327099466    0.1000
@<TRIPOS>BOND
     1     1     2    2
     2     2     3   am
     3     2    15    1
     4     3     4    1
     5     3    29    1
     6     4    14    1
     7     4     5    2
     8     5     6    1
     9     6     7    1
    10     6    13    1
    11     7    12    1
    12     7     8    1
    13     7    30    1
    14     8     9    1
    15     8    31    1
    16     8    32    1
    17     9    10    1
    18     9    33    1
    19     9    34    1
    20    10    11    1
    21    10    35    1
    22    10    36    1
    23    11    12    1
    24    11    37    1
    25    11    38    1
    26    12    39    1
    27    12    40    1
    28    13    14    2
    29    13    41    1
    30    14    42    1
    31    15    16    2
    32    15    17   am
    33    17    28    1
    34    17    18    1
    35    18    19    1
    36    18    43    1
    37    18    44    1
    38    19    20    1
    39    19    45    1
    40    19    46    1
    41    20    21    1
    42    20    47    1
    43    20    48    1
    44    21    22    1
    45    21    23    1
    46    21    28    1
    47    23    24    1
    48    24    27    1
    49    24    25    1
    50    24    49    1
    51    25    26    1
    52    25    50    1
    53    25    51    1
    54    26    27    1
    55    26    52    1
    56    26    53    1
    57    27    54    1
    58    27    55    1
    59    28    56    1
    60    28    57    1
@<TRIPOS>SUBSTRUCTURE
     1 ZINC001327099466        1 TEMP              0 ****  ****    0 ROOT


##########                                Name:    ZINC000460972051
##########                DOCK_Rotatable_Bonds:                  10
##########                         Heavy_Atoms:                  29
##########                    Molecular_Weight:             417.572
##########                DOCK_Rotatable_Bonds:                  10
##########                       Formal_Charge:         3.31551e-07
##########                     HBond_Acceptors:                   7
##########                        HBond_Donors:                   2
##########                         Heavy_Atoms:                  29
##########                          Grid_Score:          -29.813478
##########                     Grid_vdw_energy:          -28.740978
##########                      Grid_es_energy:           -1.072500
##########           Internal_energy_repulsive:           27.096018

@<TRIPOS>MOLECULE
ZINC000460972051
 60 61 1 0 0
SMALL
USER_CHARGES


@<TRIPOS>ATOM
      1 C1        -14.1204    1.3454   47.9106 C.3     1  ZINC000460972051   -0.1800
      2 C2        -14.3074   -0.1568   48.1331 C.3     1  ZINC000460972051    0.1000
      3 N3        -15.2804   -0.3741   49.2065 N.am    1  ZINC000460972051   -0.6200
      4 C4        -14.8971   -0.2712   50.4945 C.2     1  ZINC000460972051    0.7100
      5 O5        -15.7051   -0.4500   51.3854 O.2     1  ZINC000460972051   -0.5800
      6 N6        -13.6183    0.0299   50.7950 N.am    1  ZINC000460972051   -0.7400
      7 C7        -13.2012    0.1401   52.1950 C.3     1  ZINC000460972051    0.2000
      8 H8        -13.7566   -0.5790   52.7972 H       1  ZINC000460972051    0.1100
      9 C9        -11.7033   -0.1514   52.3054 C.3     1  ZINC000460972051    0.1100
     10 N10       -11.3636   -0.4402   53.7010 N.am    1  ZINC000460972051   -1.1200
     11 S11       -10.3357    0.5613   54.5272 S.o2    1  ZINC000460972051    2.7000
     12 O12       -10.8671    1.8733   54.4024 O.2     1  ZINC000460972051   -0.9500
     13 O13       -10.0899   -0.0616   55.7806 O.2     1  ZINC000460972051   -0.9600
     14 C14        -8.8006    0.5618   53.6624 C.ar    1  ZINC000460972051   -0.6900
     15 C15        -8.5204   -0.4388   52.7511 C.ar    1  ZINC000460972051   -0.0100
     16 C16        -7.3158   -0.4384   52.0726 C.ar    1  ZINC000460972051   -0.1500
     17 C17        -6.3920    0.5629   52.3051 C.ar    1  ZINC000460972051   -0.0200
     18 C18        -5.0788    0.5632   51.5658 C.3     1  ZINC000460972051   -0.1300
     19 C19        -6.6728    1.5648   53.2156 C.ar    1  ZINC000460972051   -0.1500
     20 C20        -7.8786    1.5664   53.8912 C.ar    1  ZINC000460972051    0.0300
     21 C21        -8.1848    2.6583   54.8837 C.3     1  ZINC000460972051   -0.1700
     22 C22       -13.4797    1.5345   52.6940 C.ar    1  ZINC000460972051   -0.1000
     23 C23       -13.0930    2.6279   51.9417 C.ar    1  ZINC000460972051   -0.1000
     24 C24       -13.3485    3.9070   52.3993 C.ar    1  ZINC000460972051   -0.1200
     25 C25       -13.9911    4.0928   53.6091 C.ar    1  ZINC000460972051   -0.1200
     26 C26       -14.3786    2.9994   54.3609 C.ar    1  ZINC000460972051   -0.1200
     27 C27       -14.1269    1.7202   53.9012 C.ar    1  ZINC000460972051   -0.1000
     28 C28       -16.6701   -0.7032   48.8798 C.3     1  ZINC000460972051    0.1500
     29 C29       -17.1524    0.1952   47.7391 C.3     1  ZINC000460972051   -0.1600
     30 C30       -16.7594   -2.1682   48.4479 C.3     1  ZINC000460972051   -0.1600
     31 H31       -13.3965    1.5070   47.1119 H       1  ZINC000460972051    0.0700
     32 H32       -15.0745    1.7929   47.6322 H       1  ZINC000460972051    0.0600
     33 H33       -13.7571    1.8062   48.8291 H       1  ZINC000460972051    0.0700
     34 H34       -14.6707   -0.6178   47.2145 H       1  ZINC000460972051    0.0700
     35 H35       -13.3532   -0.6044   48.4115 H       1  ZINC000460972051    0.0900
     36 H36       -12.9740    0.1738   50.0842 H       1  ZINC000460972051    0.4000
     37 H37       -11.4540   -1.0124   51.6852 H       1  ZINC000460972051    0.0900
     38 H38       -11.1383    0.7168   51.9661 H       1  ZINC000460972051    0.0900
     39 H39       -11.7408   -1.2180   54.1410 H       1  ZINC000460972051    0.4200
     40 H40        -9.2422   -1.2214   52.5695 H       1  ZINC000460972051    0.1400
     41 H41        -7.0965   -1.2208   51.3611 H       1  ZINC000460972051    0.1300
     42 H42        -5.1840    1.1263   50.6384 H       1  ZINC000460972051    0.0800
     43 H43        -4.3122    1.0261   52.1871 H       1  ZINC000460972051    0.0700
     44 H44        -4.7904   -0.4628   51.3371 H       1  ZINC000460972051    0.0700
     45 H45        -5.9512    2.3474   53.3970 H       1  ZINC000460972051    0.1300
     46 H46        -8.7727    3.4368   54.3974 H       1  ZINC000460972051    0.0900
     47 H47        -8.7505    2.2431   55.7177 H       1  ZINC000460972051    0.1000
     48 H48        -7.2524    3.0849   55.2536 H       1  ZINC000460972051    0.0900
     49 H49       -12.5910    2.4828   50.9966 H       1  ZINC000460972051    0.1200
     50 H50       -13.0457    4.7612   51.8120 H       1  ZINC000460972051    0.1200
     51 H51       -14.1901    5.0922   53.9670 H       1  ZINC000460972051    0.1200
     52 H52       -14.8804    3.1445   55.3063 H       1  ZINC000460972051    0.1200
     53 H53       -14.4297    0.8661   54.4887 H       1  ZINC000460972051    0.1200
     54 H54       -17.2970   -0.5443   49.7573 H       1  ZINC000460972051    0.1000
     55 H55       -17.0888    1.2389   48.0468 H       1  ZINC000460972051    0.0600
     56 H56       -16.5255    0.0364   46.8616 H       1  ZINC000460972051    0.0600
     57 H57       -18.1863   -0.0497   47.4960 H       1  ZINC000460972051    0.0700
     58 H58       -16.4158   -2.8082   49.2605 H       1  ZINC000460972051    0.0600
     59 H59       -17.7933   -2.4131   48.2048 H       1  ZINC000460972051    0.0700
     60 H60       -16.1325   -2.3270   47.5704 H       1  ZINC000460972051    0.0600
@<TRIPOS>BOND
     1     1     2    1
     2     1    31    1
     3     1    32    1
     4     1    33    1
     5     2     3    1
     6     2    34    1
     7     2    35    1
     8     3     4   am
     9     3    28    1
    10     4     5    2
    11     4     6   am
    12     6     7    1
    13     6    36    1
    14     7     8    1
    15     7     9    1
    16     7    22    1
    17     9    10    1
    18     9    37    1
    19     9    38    1
    20    10    11   am
    21    10    39    1
    22    11    12    2
    23    11    13    2
    24    11    14    1
    25    14    20   ar
    26    14    15   ar
    27    15    16   ar
    28    15    40    1
    29    16    17   ar
    30    16    41    1
    31    17    18    1
    32    17    19   ar
    33    18    42    1
    34    18    43    1
    35    18    44    1
    36    19    20   ar
    37    19    45    1
    38    20    21    1
    39    21    46    1
    40    21    47    1
    41    21    48    1
    42    22    27   ar
    43    22    23   ar
    44    23    24   ar
    45    23    49    1
    46    24    25   ar
    47    24    50    1
    48    25    26   ar
    49    25    51    1
    50    26    27   ar
    51    26    52    1
    52    27    53    1
    53    28    29    1
    54    28    30    1
    55    28    54    1
    56    29    55    1
    57    29    56    1
    58    29    57    1
    59    30    58    1
    60    30    59    1
    61    30    60    1
@<TRIPOS>SUBSTRUCTURE
     1 ZINC000460972051        1 TEMP              0 ****  ****    0 ROOT


##########                                Name:    ZINC000562561773
##########                DOCK_Rotatable_Bonds:                   6
##########                         Heavy_Atoms:                  26
##########                    Molecular_Weight:             371.466
##########                DOCK_Rotatable_Bonds:                   6
##########                       Formal_Charge:           0.0199999
##########                     HBond_Acceptors:                   9
##########                        HBond_Donors:                   0
##########                         Heavy_Atoms:                  26
##########                          Grid_Score:          -29.809616
##########                     Grid_vdw_energy:          -29.215796
##########                      Grid_es_energy:           -0.593822
##########           Internal_energy_repulsive:            8.396352

@<TRIPOS>MOLECULE
ZINC000562561773
 47 50 1 0 0
SMALL
USER_CHARGES


@<TRIPOS>ATOM
      1 C1          5.1764    2.3522   49.6278 C.3     1  ZINC000562561773   -0.1100
      2 C2          3.6795    2.2962   49.7932 C.ar    1  ZINC000562561773   -0.0400
      3 C3          2.8848    1.8835   48.7410 C.ar    1  ZINC000562561773   -0.1200
      4 C4          1.5126    1.8301   48.8861 C.ar    1  ZINC000562561773   -0.0700
      5 C5          0.9248    2.1928   50.0962 C.ar    1  ZINC000562561773   -0.0300
      6 C6         -0.5500    2.1353   50.2537 C.2     1  ZINC000562561773    0.2200
      7 N7         -1.3711    1.3585   49.5965 N.2     1  ZINC000562561773   -0.3700
      8 O8         -2.5115    1.5551   49.9594 O.3     1  ZINC000562561773    0.0900
      9 C9         -2.5344    2.4985   50.9062 C.2     1  ZINC000562561773    0.1900
     10 C10        -3.7553    3.0271   51.6139 C.3     1  ZINC000562561773   -0.0100
     11 C11        -4.7947    1.9116   51.7399 C.3     1  ZINC000562561773   -0.1200
     12 S12        -6.2357    2.5289   52.6447 S.3     1  ZINC000562561773    0.0600
     13 C13        -7.2572    1.0937   52.6092 C.2     1  ZINC000562561773    0.2100
     14 N14        -6.9427   -0.0770   52.0984 N.2     1  ZINC000562561773   -0.3300
     15 N15        -7.9146   -0.9047   52.2386 N.2     1  ZINC000562561773   -0.0300
     16 N16        -8.9042   -0.3362   52.8381 N.2     1  ZINC000562561773   -0.0700
     17 N17        -8.5115    0.9864   53.1078 N.pl3   1  ZINC000562561773   -0.3600
     18 C18        -9.2948    2.0280   53.7767 C.3     1  ZINC000562561773    0.0800
     19 N19        -1.2954    2.8723   51.1080 N.2     1  ZINC000562561773   -0.4600
     20 C20         1.7242    2.6088   51.1575 C.ar    1  ZINC000562561773   -0.1100
     21 C21         3.1022    2.6544   51.0058 C.ar    1  ZINC000562561773    0.0800
     22 N22         3.9086    3.0707   52.0679 N.3     1  ZINC000562561773   -0.4800
     23 C23         3.5564    4.4489   52.4953 C.3     1  ZINC000562561773    0.0400
     24 C24         4.1289    4.5315   53.9326 C.3     1  ZINC000562561773   -0.1200
     25 C25         3.8573    3.1173   54.4949 C.3     1  ZINC000562561773   -0.1300
     26 C26         3.7032    2.2149   53.2565 C.3     1  ZINC000562561773    0.0400
     27 H27         5.6092    1.3923   49.9098 H       1  ZINC000562561773    0.0700
     28 H28         5.4191    2.5686   48.5875 H       1  ZINC000562561773    0.0600
     29 H29         5.5834    3.1360   50.2666 H       1  ZINC000562561773    0.0800
     30 H30         3.3384    1.6023   47.8019 H       1  ZINC000562561773    0.1400
     31 H31         0.8948    1.5073   48.0611 H       1  ZINC000562561773    0.1400
     32 H32        -3.4761    3.3775   52.6076 H       1  ZINC000562561773    0.1200
     33 H33        -4.1770    3.8539   51.0424 H       1  ZINC000562561773    0.1300
     34 H34        -5.1017    1.5870   50.7457 H       1  ZINC000562561773    0.1100
     35 H35        -4.3606    1.0696   52.2790 H       1  ZINC000562561773    0.1100
     36 H36        -9.1103    1.9884   54.8503 H       1  ZINC000562561773    0.1000
     37 H37        -9.0018    3.0055   53.3936 H       1  ZINC000562561773    0.1000
     38 H38       -10.3552    1.8652   53.5841 H       1  ZINC000562561773    0.1100
     39 H39         1.2731    2.8911   52.0972 H       1  ZINC000562561773    0.1300
     40 H40         4.0325    5.1858   51.8485 H       1  ZINC000562561773    0.0900
     41 H41         2.4748    4.5844   52.5037 H       1  ZINC000562561773    0.0500
     42 H42         5.1989    4.7387   53.9102 H       1  ZINC000562561773    0.0800
     43 H43         3.6010    5.2863   54.5154 H       1  ZINC000562561773    0.0700
     44 H44         4.6979    2.7841   55.1035 H       1  ZINC000562561773    0.0800
     45 H45         2.9390    3.1137   55.0822 H       1  ZINC000562561773    0.0700
     46 H46         2.7029    1.7825   53.2343 H       1  ZINC000562561773    0.0500
     47 H47         4.4523    1.4235   53.2782 H       1  ZINC000562561773    0.0800
@<TRIPOS>BOND
     1     1     2    1
     2     1    27    1
     3     1    28    1
     4     1    29    1
     5     2    21   ar
     6     2     3   ar
     7     3     4   ar
     8     3    30    1
     9     4     5   ar
    10     4    31    1
    11     5     6    1
    12     5    20   ar
    13     6    19    1
    14     6     7    2
    15     7     8    1
    16     8     9    1
    17     9    10    1
    18     9    19    2
    19    10    11    1
    20    10    32    1
    21    10    33    1
    22    11    12    1
    23    11    34    1
    24    11    35    1
    25    12    13    1
    26    13    17    1
    27    13    14    2
    28    14    15    1
    29    15    16    2
    30    16    17    1
    31    17    18    1
    32    18    36    1
    33    18    37    1
    34    18    38    1
    35    20    21   ar
    36    20    39    1
    37    21    22    1
    38    22    26    1
    39    22    23    1
    40    23    24    1
    41    23    40    1
    42    23    41    1
    43    24    25    1
    44    24    42    1
    45    24    43    1
    46    25    26    1
    47    25    44    1
    48    25    45    1
    49    26    46    1
    50    26    47    1
@<TRIPOS>SUBSTRUCTURE
     1 ZINC000562561773        1 TEMP              0 ****  ****    0 ROOT


##########                                Name:    ZINC001220171460
##########                DOCK_Rotatable_Bonds:                  10
##########                         Heavy_Atoms:                  25
##########                    Molecular_Weight:             383.773
##########                DOCK_Rotatable_Bonds:                  10
##########                       Formal_Charge:           0.0199996
##########                     HBond_Acceptors:                  10
##########                        HBond_Donors:                   3
##########                         Heavy_Atoms:                  25
##########                          Grid_Score:          -29.804800
##########                     Grid_vdw_energy:          -28.182735
##########                      Grid_es_energy:           -1.622064
##########           Internal_energy_repulsive:            8.424413

@<TRIPOS>MOLECULE
ZINC001220171460
 43 44 1 0 0
SMALL
USER_CHARGES


@<TRIPOS>ATOM
      1 C1         -6.0902   -0.3780   51.2514 C.3     1  ZINC001220171460    0.0200
      2 O2         -6.4958   -0.3350   52.6210 O.3     1  ZINC001220171460   -0.3100
      3 C3         -7.6729    0.2884   52.8971 C.ar    1  ZINC001220171460    0.1000
      4 C4         -8.8727   -0.3687   52.6826 C.ar    1  ZINC001220171460   -0.1500
      5 C5        -10.0699    0.2660   52.9636 C.ar    1  ZINC001220171460   -0.0600
      6 Cl6       -11.5727   -0.5603   52.6945 Cl      1  ZINC001220171460   -0.0400
      7 C7        -10.0713    1.5594   53.4597 C.ar    1  ZINC001220171460    0.1000
      8 F8        -11.2421    2.1755   53.7332 F       1  ZINC001220171460   -0.1200
      9 C9         -8.8751    2.2212   53.6760 C.ar    1  ZINC001220171460   -0.1200
     10 C10        -7.6728    1.5870   53.4012 C.ar    1  ZINC001220171460    0.1800
     11 N11        -6.4600    2.2556   53.6197 N.am    1  ZINC001220171460   -0.6700
     12 C12        -6.0837    3.2548   52.7972 C.2     1  ZINC001220171460    0.7100
     13 O13        -6.7960    3.5764   51.8658 O.2     1  ZINC001220171460   -0.5700
     14 N14        -4.9178    3.8975   53.0072 N.am    1  ZINC001220171460   -0.7400
     15 C15        -4.5079    4.9824   52.1121 C.3     1  ZINC001220171460    0.1400
     16 C16        -3.1671    5.5512   52.5808 C.3     1  ZINC001220171460   -0.1400
     17 C17        -2.0966    4.4606   52.5067 C.3     1  ZINC001220171460    0.0500
     18 H18        -2.3577    3.6485   53.1852 H       1  ZINC001220171460    0.1000
     19 N19        -2.0171    3.9449   51.1335 N.3     1  ZINC001220171460   -0.6500
     20 C20        -1.7980    2.4923   51.1285 C.3     1  ZINC001220171460    0.0100
     21 C21        -2.8948    1.6144   50.5224 C.3     1  ZINC001220171460   -0.2000
     22 C22        -1.5755    1.8161   49.7742 C.3     1  ZINC001220171460   -0.1600
     23 C23        -0.7423    5.0469   52.9105 C.3     1  ZINC001220171460    0.4600
     24 F24        -0.3574    6.0166   51.9786 F       1  ZINC001220171460   -0.1800
     25 F25        -0.8464    5.6324   54.1768 F       1  ZINC001220171460   -0.1800
     26 F26         0.2154    4.0276   52.9454 F       1  ZINC001220171460   -0.1700
     27 H27        -6.8443   -0.9033   50.6654 H       1  ZINC001220171460    0.0600
     28 H28        -5.9791    0.6382   50.8733 H       1  ZINC001220171460    0.0600
     29 H29        -5.1376   -0.9017   51.1709 H       1  ZINC001220171460    0.1100
     30 H30        -8.8743   -1.3770   52.2955 H       1  ZINC001220171460    0.1500
     31 H31        -8.8778    3.2297   54.0626 H       1  ZINC001220171460    0.1800
     32 H32        -5.8917    1.9990   54.3628 H       1  ZINC001220171460    0.4200
     33 H33        -4.3501    3.6418   53.7510 H       1  ZINC001220171460    0.4000
     34 H34        -4.4044    4.5972   51.0978 H       1  ZINC001220171460    0.0800
     35 H35        -5.2615    5.7698   52.1267 H       1  ZINC001220171460    0.0700
     36 H36        -2.8816    6.3846   51.9390 H       1  ZINC001220171460    0.1000
     37 H37        -3.2599    5.8999   53.6094 H       1  ZINC001220171460    0.1000
     38 H38        -2.8434    4.1876   50.6077 H       1  ZINC001220171460    0.3600
     39 H39        -1.2516    2.0963   51.9846 H       1  ZINC001220171460    0.1200
     40 H40        -3.0702    0.6407   50.9797 H       1  ZINC001220171460    0.1000
     41 H41        -3.7789    2.1148   50.1273 H       1  ZINC001220171460    0.1000
     42 H42        -1.5917    2.4490   48.8870 H       1  ZINC001220171460    0.1000
     43 H43        -0.8830    0.9750   49.7394 H       1  ZINC001220171460    0.1000
@<TRIPOS>BOND
     1     1     2    1
     2     1    27    1
     3     1    28    1
     4     1    29    1
     5     2     3    1
     6     3    10   ar
     7     3     4   ar
     8     4     5   ar
     9     4    30    1
    10     5     6    1
    11     5     7   ar
    12     7     8    1
    13     7     9   ar
    14     9    10   ar
    15     9    31    1
    16    10    11    1
    17    11    12   am
    18    11    32    1
    19    12    13    2
    20    12    14   am
    21    14    15    1
    22    14    33    1
    23    15    16    1
    24    15    34    1
    25    15    35    1
    26    16    17    1
    27    16    36    1
    28    16    37    1
    29    17    18    1
    30    17    19    1
    31    17    23    1
    32    19    20    1
    33    19    38    1
    34    20    22    1
    35    20    21    1
    36    20    39    1
    37    21    22    1
    38    21    40    1
    39    21    41    1
    40    22    42    1
    41    22    43    1
    42    23    24    1
    43    23    25    1
    44    23    26    1
@<TRIPOS>SUBSTRUCTURE
     1 ZINC001220171460        1 TEMP              0 ****  ****    0 ROOT


##########                                Name:    ZINC001016082614
##########                DOCK_Rotatable_Bonds:                   6
##########                         Heavy_Atoms:                  25
##########                    Molecular_Weight:             348.402
##########                DOCK_Rotatable_Bonds:                   6
##########                       Formal_Charge:         -0.00999998
##########                     HBond_Acceptors:                   8
##########                        HBond_Donors:                   1
##########                         Heavy_Atoms:                  25
##########                          Grid_Score:          -29.800863
##########                     Grid_vdw_energy:          -28.392244
##########                      Grid_es_energy:           -1.408618
##########           Internal_energy_repulsive:           47.201172

@<TRIPOS>MOLECULE
ZINC001016082614
 49 51 1 0 0
SMALL
USER_CHARGES


@<TRIPOS>ATOM
      1 C1         -1.2345    4.1946   52.4801 C.3     1  ZINC001016082614   -0.1700
      2 C2         -1.8070    2.7764   52.5219 C.3     1  ZINC001016082614    0.1000
      3 N3         -2.3529    2.4312   51.2070 N.am    1  ZINC001016082614   -0.6100
      4 C4         -1.5245    2.0706   50.2068 C.2     1  ZINC001016082614    0.6100
      5 O5         -1.9779    1.7839   49.1147 O.2     1  ZINC001016082614   -0.5100
      6 C6         -0.0758    2.0239   50.4350 C.2     1  ZINC001016082614   -0.1100
      7 C7          0.8851    1.7440   49.5092 C.2     1  ZINC001016082614    0.0600
      8 N8          2.0685    1.8063   50.1282 N.2     1  ZINC001016082614   -0.4900
      9 C9          1.8760    2.1100   51.3839 C.2     1  ZINC001016082614    0.2000
     10 O10         0.5657    2.2561   51.6039 O.3     1  ZINC001016082614   -0.1900
     11 C11        -3.7994    2.4778   50.9791 C.3     1  ZINC001016082614    0.1600
     12 H12        -3.9891    2.2744   49.9252 H       1  ZINC001016082614    0.0800
     13 C13        -4.4563    1.3801   51.8104 C.3     1  ZINC001016082614   -0.1300
     14 C14        -5.7538    0.9686   51.1594 C.3     1  ZINC001016082614   -0.1300
     15 C15        -6.9190    1.7948   51.7338 C.3     1  ZINC001016082614    0.1000
     16 N16        -6.5537    3.2117   51.9281 N.am    1  ZINC001016082614   -0.6000
     17 C17        -6.9521    3.8329   53.0557 C.2     1  ZINC001016082614    0.5000
     18 O18        -6.6656    4.9967   53.2406 O.2     1  ZINC001016082614   -0.5200
     19 C19        -7.7538    3.0813   54.0870 C.3     1  ZINC001016082614    0.1100
     20 H20        -8.4192    2.3681   53.6004 H       1  ZINC001016082614    0.1100
     21 C21        -8.5684    4.0672   54.9535 C.3     1  ZINC001016082614   -0.1200
     22 C22        -7.6161    4.2962   56.1500 C.3     1  ZINC001016082614   -0.1600
     23 C23        -6.7579    3.0510   56.1849 C.2     1  ZINC001016082614    0.5300
     24 O24        -6.0785    2.7017   57.1270 O.2     1  ZINC001016082614   -0.5300
     25 N25        -6.8581    2.3859   55.0187 N.am    1  ZINC001016082614   -0.7100
     26 C26        -5.7856    3.9604   50.9587 C.3     1  ZINC001016082614    0.1300
     27 C27        -4.2770    3.8347   51.2864 C.3     1  ZINC001016082614   -0.1600
     28 H28        -0.8283    4.4515   53.4584 H       1  ZINC001016082614    0.0700
     29 H29        -0.4422    4.2448   51.7332 H       1  ZINC001016082614    0.0500
     30 H30        -2.0251    4.8980   52.2189 H       1  ZINC001016082614    0.0600
     31 H31        -1.0163    2.0729   52.7831 H       1  ZINC001016082614    0.0900
     32 H32        -2.5992    2.7262   53.2688 H       1  ZINC001016082614    0.0900
     33 H33         0.7205    1.5138   48.4669 H       1  ZINC001016082614    0.2000
     34 H34         2.6522    2.2286   52.1253 H       1  ZINC001016082614    0.2600
     35 H35        -3.7897    0.5196   51.8684 H       1  ZINC001016082614    0.0700
     36 H36        -4.6559    1.7544   52.8144 H       1  ZINC001016082614    0.0800
     37 H37        -5.6878    1.1358   50.0843 H       1  ZINC001016082614    0.0700
     38 H38        -5.9334   -0.0897   51.3485 H       1  ZINC001016082614    0.0800
     39 H39        -7.7647    1.7381   51.0484 H       1  ZINC001016082614    0.0700
     40 H40        -7.2142    1.3706   52.6935 H       1  ZINC001016082614    0.0800
     41 H41        -8.7519    4.9981   54.4171 H       1  ZINC001016082614    0.1000
     42 H42        -9.5051    3.6163   55.2813 H       1  ZINC001016082614    0.1000
     43 H43        -6.9999    5.1798   55.9834 H       1  ZINC001016082614    0.1100
     44 H44        -8.1833    4.3946   57.0756 H       1  ZINC001016082614    0.1100
     45 H45        -6.3976    1.5554   54.8210 H       1  ZINC001016082614    0.4200
     46 H46        -5.9763    3.5652   49.9609 H       1  ZINC001016082614    0.0800
     47 H47        -6.0791    5.0095   50.9953 H       1  ZINC001016082614    0.0900
     48 H48        -4.1188    4.0454   52.3440 H       1  ZINC001016082614    0.0900
     49 H49        -3.7170    4.5548   50.6899 H       1  ZINC001016082614    0.0700
@<TRIPOS>BOND
     1     1     2    1
     2     1    28    1
     3     1    29    1
     4     1    30    1
     5     2     3    1
     6     2    31    1
     7     2    32    1
     8     3     4   am
     9     3    11    1
    10     4     5    2
    11     4     6    1
    12     6    10    1
    13     6     7    2
    14     7     8    1
    15     7    33    1
    16     8     9    2
    17     9    10    1
    18     9    34    1
    19    11    12    1
    20    11    27    1
    21    11    13    1
    22    13    14    1
    23    13    35    1
    24    13    36    1
    25    14    15    1
    26    14    37    1
    27    14    38    1
    28    15    16    1
    29    15    39    1
    30    15    40    1
    31    16    17   am
    32    16    26    1
    33    17    18    2
    34    17    19    1
    35    19    20    1
    36    19    25    1
    37    19    21    1
    38    21    22    1
    39    21    41    1
    40    21    42    1
    41    22    23    1
    42    22    43    1
    43    22    44    1
    44    23    24    2
    45    23    25   am
    46    25    45    1
    47    26    27    1
    48    26    46    1
    49    26    47    1
    50    27    48    1
    51    27    49    1
@<TRIPOS>SUBSTRUCTURE
     1 ZINC001016082614        1 TEMP              0 ****  ****    0 ROOT


##########                                Name:    ZINC001193456967
##########                DOCK_Rotatable_Bonds:                   3
##########                         Heavy_Atoms:                  27
##########                    Molecular_Weight:             392.451
##########                DOCK_Rotatable_Bonds:                   3
##########                       Formal_Charge:           0.0300002
##########                     HBond_Acceptors:                   8
##########                        HBond_Donors:                   0
##########                         Heavy_Atoms:                  27
##########                          Grid_Score:          -29.795042
##########                     Grid_vdw_energy:          -27.728714
##########                      Grid_es_energy:           -2.066329
##########           Internal_energy_repulsive:           45.611195

@<TRIPOS>MOLECULE
ZINC001193456967
 48 50 1 0 0
SMALL
USER_CHARGES


@<TRIPOS>ATOM
      1 C1          1.3365    3.1387   52.4168 C.3     1  ZINC001193456967   -0.1400
      2 C2         -0.1075    3.1230   51.9859 C.ar    1  ZINC001193456967    0.0300
      3 C3         -1.0934    3.5465   52.8572 C.ar    1  ZINC001193456967   -0.1400
      4 C4         -2.4181    3.5320   52.4618 C.ar    1  ZINC001193456967    0.0300
      5 C5         -2.7566    3.0944   51.1953 C.ar    1  ZINC001193456967   -0.6900
      6 S6         -4.4450    3.0753   50.6917 S.o2    1  ZINC001193456967    2.7100
      7 O7         -4.9706    4.3586   51.0012 O.2     1  ZINC001193456967   -0.9300
      8 O8         -4.4671    2.5213   49.3833 O.2     1  ZINC001193456967   -0.9400
      9 N9         -5.2360    1.9977   51.6691 N.am    1  ZINC001193456967   -1.0000
     10 C10        -4.9253    0.5619   51.7935 C.3     1  ZINC001193456967    0.1100
     11 C11        -6.2431   -0.0879   52.2841 C.3     1  ZINC001193456967   -0.1200
     12 C12        -6.7877    1.0005   53.2465 C.3     1  ZINC001193456967   -0.0500
     13 H13        -6.3240    0.9134   54.2291 H       1  ZINC001193456967    0.1000
     14 C14        -8.2880    0.9118   53.3574 C.ar    1  ZINC001193456967   -0.0800
     15 C15        -8.9685   -0.1093   52.7205 C.ar    1  ZINC001193456967   -0.0800
     16 C16       -10.3443   -0.1915   52.8214 C.ar    1  ZINC001193456967   -0.1500
     17 C17       -11.0412    0.7489   53.5611 C.ar    1  ZINC001193456967    0.1000
     18 F18       -12.3861    0.6692   53.6608 F       1  ZINC001193456967   -0.1400
     19 C19       -10.3585    1.7708   54.1988 C.ar    1  ZINC001193456967   -0.1500
     20 C20        -8.9822    1.8483   54.1004 C.ar    1  ZINC001193456967   -0.0800
     21 C21        -6.3603    2.3158   52.5615 C.3     1  ZINC001193456967    0.1900
     22 C22        -5.9244    3.3343   53.6167 C.3     1  ZINC001193456967   -0.1800
     23 C23        -7.5237    2.8772   51.7415 C.3     1  ZINC001193456967   -0.1800
     24 C24        -1.7704    2.6719   50.3233 C.ar    1  ZINC001193456967    0.0400
     25 C25        -0.4457    2.6901   50.7171 C.ar    1  ZINC001193456967   -0.0600
     26 N26         0.6103    2.2378   49.7837 N.pl3   1  ZINC001193456967    0.0200
     27 O27         1.6860    2.8085   49.7583 O.2     1  ZINC001193456967   -0.1400
     28 O28         0.4034    1.2950   49.0408 O.2     1  ZINC001193456967   -0.1500
     29 H29         1.8062    4.0627   52.0796 H       1  ZINC001193456967    0.1100
     30 H30         1.3920    3.0787   53.5037 H       1  ZINC001193456967    0.0900
     31 H31         1.8557    2.2863   51.9788 H       1  ZINC001193456967    0.0800
     32 H32        -0.8289    3.8886   53.8469 H       1  ZINC001193456967    0.1600
     33 H33        -3.1886    3.8624   53.1429 H       1  ZINC001193456967    0.1600
     34 H34        -4.6370    0.1510   50.8260 H       1  ZINC001193456967    0.0900
     35 H35        -4.1312    0.4075   52.5240 H       1  ZINC001193456967    0.0700
     36 H36        -6.9296   -0.2541   51.4539 H       1  ZINC001193456967    0.0900
     37 H37        -6.0453   -1.0176   52.8176 H       1  ZINC001193456967    0.0900
     38 H38        -8.4247   -0.8427   52.1436 H       1  ZINC001193456967    0.1400
     39 H39       -10.8758   -0.9889   52.3233 H       1  ZINC001193456967    0.1400
     40 H40       -10.9011    2.5051   54.7757 H       1  ZINC001193456967    0.1400
     41 H41        -8.4495    2.6452   54.5980 H       1  ZINC001193456967    0.1300
     42 H42        -5.0833    2.9337   54.1825 H       1  ZINC001193456967    0.0700
     43 H43        -5.6242    4.2600   53.1258 H       1  ZINC001193456967    0.0600
     44 H44        -6.7551    3.5346   54.2933 H       1  ZINC001193456967    0.0800
     45 H45        -8.4040    2.9718   52.3773 H       1  ZINC001193456967    0.0800
     46 H46        -7.2520    3.8571   51.3491 H       1  ZINC001193456967    0.0900
     47 H47        -7.7438    2.2027   50.9141 H       1  ZINC001193456967    0.0700
     48 H48        -2.0348    2.3303   49.3335 H       1  ZINC001193456967    0.1600
@<TRIPOS>BOND
     1     1     2    1
     2     1    29    1
     3     1    30    1
     4     1    31    1
     5     2    25   ar
     6     2     3   ar
     7     3     4   ar
     8     3    32    1
     9     4     5   ar
    10     4    33    1
    11     5     6    1
    12     5    24   ar
    13     6     7    2
    14     6     8    2
    15     6     9   am
    16     9    21    1
    17     9    10    1
    18    10    11    1
    19    10    34    1
    20    10    35    1
    21    11    12    1
    22    11    36    1
    23    11    37    1
    24    12    13    1
    25    12    14    1
    26    12    21    1
    27    14    20   ar
    28    14    15   ar
    29    15    16   ar
    30    15    38    1
    31    16    17   ar
    32    16    39    1
    33    17    18    1
    34    17    19   ar
    35    19    20   ar
    36    19    40    1
    37    20    41    1
    38    21    22    1
    39    21    23    1
    40    22    42    1
    41    22    43    1
    42    22    44    1
    43    23    45    1
    44    23    46    1
    45    23    47    1
    46    24    25   ar
    47    24    48    1
    48    25    26    1
    49    26    27    2
    50    26    28    2
@<TRIPOS>SUBSTRUCTURE
     1 ZINC001193456967        1 TEMP              0 ****  ****    0 ROOT


##########                                Name:    ZINC000171059239
##########                DOCK_Rotatable_Bonds:                   8
##########                         Heavy_Atoms:                  25
##########                    Molecular_Weight:              333.39
##########                DOCK_Rotatable_Bonds:                   8
##########                       Formal_Charge:         1.10269e-06
##########                     HBond_Acceptors:                   5
##########                        HBond_Donors:                   4
##########                         Heavy_Atoms:                  25
##########                          Grid_Score:          -29.788776
##########                     Grid_vdw_energy:          -29.406940
##########                      Grid_es_energy:           -0.381835
##########           Internal_energy_repulsive:            7.620612

@<TRIPOS>MOLECULE
ZINC000171059239
 44 46 1 0 0
SMALL
USER_CHARGES


@<TRIPOS>ATOM
      1 N1        -12.4429   -0.2055   52.8611 N.am    1  ZINC000171059239   -0.8500
      2 C2        -11.1373   -0.4601   53.0776 C.2     1  ZINC000171059239    0.5600
      3 O3        -10.7919   -1.5456   53.5018 O.2     1  ZINC000171059239   -0.5400
      4 C4        -10.1250    0.5810   52.7993 C.ar    1  ZINC000171059239   -0.1400
      5 C5        -10.5170    1.9072   52.6113 C.ar    1  ZINC000171059239   -0.0900
      6 C6         -9.5672    2.8740   52.3524 C.ar    1  ZINC000171059239   -0.1200
      7 C7         -8.2291    2.5309   52.2783 C.ar    1  ZINC000171059239   -0.0800
      8 C8         -7.8337    1.2177   52.4631 C.ar    1  ZINC000171059239   -0.0900
      9 C9         -6.3739    0.8533   52.3802 C.3     1  ZINC000171059239   -0.0900
     10 C10        -5.9071    0.9448   50.9260 C.3     1  ZINC000171059239    0.1400
     11 N11        -5.0494    2.1211   50.7616 N.am    1  ZINC000171059239   -0.7400
     12 C12        -3.7184    2.0155   50.9453 C.2     1  ZINC000171059239    0.7000
     13 O13        -3.2293    0.9437   51.2460 O.2     1  ZINC000171059239   -0.5700
     14 N14        -2.9294    3.0979   50.7957 N.am    1  ZINC000171059239   -0.6800
     15 C15        -1.5506    2.9885   50.9860 C.ar    1  ZINC000171059239    0.1700
     16 C16        -0.9316    3.6188   52.0863 C.ar    1  ZINC000171059239   -0.0600
     17 C17        -1.6771    4.3662   53.0114 C.ar    1  ZINC000171059239   -0.1100
     18 C18        -1.0468    4.9607   54.0617 C.ar    1  ZINC000171059239   -0.1100
     19 C19         0.3308    4.8389   54.2332 C.ar    1  ZINC000171059239   -0.1200
     20 C20         1.0852    4.1221   53.3560 C.ar    1  ZINC000171059239   -0.1000
     21 C21         0.4689    3.4940   52.2598 C.ar    1  ZINC000171059239   -0.0400
     22 C22         1.2164    2.7457   51.3347 C.ar    1  ZINC000171059239   -0.1200
     23 C23         0.5930    2.1476   50.2823 C.ar    1  ZINC000171059239   -0.0900
     24 C24        -0.7826    2.2592   50.1041 C.ar    1  ZINC000171059239   -0.1200
     25 C25        -8.7725    0.2427   52.7289 C.ar    1  ZINC000171059239   -0.0500
     26 H26       -13.1069   -0.8889   53.0425 H       1  ZINC000171059239    0.4100
     27 H27       -12.7189    0.6625   52.5274 H       1  ZINC000171059239    0.4000
     28 H28       -11.5614    2.1760   52.6682 H       1  ZINC000171059239    0.1300
     29 H29        -9.8692    3.9006   52.2067 H       1  ZINC000171059239    0.1300
     30 H30        -7.4896    3.2914   52.0750 H       1  ZINC000171059239    0.1300
     31 H31        -5.7920    1.5421   52.9927 H       1  ZINC000171059239    0.0800
     32 H32        -6.2323   -0.1645   52.7438 H       1  ZINC000171059239    0.0800
     33 H33        -5.3459    0.0469   50.6674 H       1  ZINC000171059239    0.0700
     34 H34        -6.7740    1.0328   50.2712 H       1  ZINC000171059239    0.0700
     35 H35        -5.4394    2.9759   50.5205 H       1  ZINC000171059239    0.4000
     36 H36        -3.3196    3.9530   50.5557 H       1  ZINC000171059239    0.4100
     37 H37        -2.7454    4.4695   52.8906 H       1  ZINC000171059239    0.1200
     38 H38        -1.6228    5.5351   54.7722 H       1  ZINC000171059239    0.1200
     39 H39         0.8068    5.3208   55.0743 H       1  ZINC000171059239    0.1200
     40 H40         2.1520    4.0367   53.5012 H       1  ZINC000171059239    0.1300
     41 H41         2.2846    2.6453   51.4582 H       1  ZINC000171059239    0.1300
     42 H42         1.1753    1.5743   49.5761 H       1  ZINC000171059239    0.1300
     43 H43        -1.2528    1.7748   49.2611 H       1  ZINC000171059239    0.1400
     44 H44        -8.4627   -0.7818   52.8733 H       1  ZINC000171059239    0.1400
@<TRIPOS>BOND
     1     1     2   am
     2     1    26    1
     3     1    27    1
     4     2     3    2
     5     2     4    1
     6     4    25   ar
     7     4     5   ar
     8     5     6   ar
     9     5    28    1
    10     6     7   ar
    11     6    29    1
    12     7     8   ar
    13     7    30    1
    14     8     9    1
    15     8    25   ar
    16     9    10    1
    17     9    31    1
    18     9    32    1
    19    10    11    1
    20    10    33    1
    21    10    34    1
    22    11    12   am
    23    11    35    1
    24    12    13    2
    25    12    14   am
    26    14    15    1
    27    14    36    1
    28    15    24   ar
    29    15    16   ar
    30    16    21   ar
    31    16    17   ar
    32    17    18   ar
    33    17    37    1
    34    18    19   ar
    35    18    38    1
    36    19    20   ar
    37    19    39    1
    38    20    21   ar
    39    20    40    1
    40    21    22   ar
    41    22    23   ar
    42    22    41    1
    43    23    24   ar
    44    23    42    1
    45    24    43    1
    46    25    44    1
@<TRIPOS>SUBSTRUCTURE
     1 ZINC000171059239        1 TEMP              0 ****  ****    0 ROOT


##########                                Name:    ZINC001023148918
##########                DOCK_Rotatable_Bonds:                   6
##########                         Heavy_Atoms:                  25
##########                    Molecular_Weight:             348.402
##########                DOCK_Rotatable_Bonds:                   6
##########                       Formal_Charge:           0.0199999
##########                     HBond_Acceptors:                   8
##########                        HBond_Donors:                   2
##########                         Heavy_Atoms:                  25
##########                          Grid_Score:          -29.786205
##########                     Grid_vdw_energy:          -29.151375
##########                      Grid_es_energy:           -0.634830
##########           Internal_energy_repulsive:           11.468357

@<TRIPOS>MOLECULE
ZINC001023148918
 49 52 1 0 0
SMALL
USER_CHARGES


@<TRIPOS>ATOM
      1 C1        -17.3280   -2.4245   56.6654 C.3     1  ZINC001023148918   -0.0700
      2 C2        -15.8877   -2.0399   56.4445 C.2     1  ZINC001023148918    0.0200
      3 N3        -14.8516   -2.5453   57.0637 N.2     1  ZINC001023148918   -0.2700
      4 N4        -13.7617   -2.0063   56.6498 N.pl3   1  ZINC001023148918   -0.2500
      5 C5        -12.4190   -2.3392   57.1318 C.3     1  ZINC001023148918    0.0800
      6 C6        -14.0457   -1.0752   55.6914 C.2     1  ZINC001023148918   -0.0400
      7 C7        -13.0818   -0.2351   54.9629 C.2     1  ZINC001023148918    0.6000
      8 O8        -13.3998    0.8821   54.6020 O.2     1  ZINC001023148918   -0.5300
      9 N9        -11.8466   -0.7035   54.6957 N.am    1  ZINC001023148918   -0.7000
     10 C10       -10.8871    0.1328   53.9705 C.3     1  ZINC001023148918    0.1500
     11 H11       -11.3883    0.7243   53.2044 H       1  ZINC001023148918    0.1200
     12 C12        -9.7545   -0.7269   53.3557 C.3     1  ZINC001023148918    0.1000
     13 N13        -8.6122    0.1951   53.2198 N.am    1  ZINC001023148918   -0.6200
     14 C14        -7.5918    0.0585   52.3500 C.2     1  ZINC001023148918    0.5400
     15 O15        -7.5630   -0.8885   51.5928 O.2     1  ZINC001023148918   -0.5200
     16 C16        -6.4865    1.0824   52.3185 C.3     1  ZINC001023148918   -0.1400
     17 H17        -6.0330    1.1895   53.3039 H       1  ZINC001023148918    0.1100
     18 C18        -7.0158    2.4463   51.8066 C.3     1  ZINC001023148918   -0.1400
     19 C19        -6.1801    2.6765   50.5117 C.3     1  ZINC001023148918    0.0600
     20 H20        -6.6177    3.3659   49.7895 H       1  ZINC001023148918    0.1300
     21 C21        -4.7490    3.0454   51.0052 C.3     1  ZINC001023148918   -0.1500
     22 C22        -4.2063    1.6906   51.5274 C.3     1  ZINC001023148918   -0.1500
     23 C23        -5.4127    0.7029   51.2550 C.3     1  ZINC001023148918    0.0900
     24 H24        -5.1476   -0.3525   51.1928 H       1  ZINC001023148918    0.1400
     25 O25        -5.9936    1.3005   50.0436 O.3     1  ZINC001023148918   -0.3600
     26 C26        -8.7711    1.2887   54.1895 C.3     1  ZINC001023148918    0.0700
     27 C27       -10.0943    1.0428   54.9455 C.3     1  ZINC001023148918    0.0900
     28 H28        -9.9098    0.5281   55.8885 H       1  ZINC001023148918    0.0800
     29 O29       -10.7845    2.2738   55.1702 O.3     1  ZINC001023148918   -0.5500
     30 C30       -15.4212   -1.0849   55.5382 C.2     1  ZINC001023148918   -0.1800
     31 H31       -17.5921   -3.2434   55.9964 H       1  ZINC001023148918    0.0800
     32 H32       -17.4649   -2.7414   57.6993 H       1  ZINC001023148918    0.0700
     33 H33       -17.9685   -1.5667   56.4604 H       1  ZINC001023148918    0.0800
     34 H34       -12.0321   -3.1900   56.5708 H       1  ZINC001023148918    0.0900
     35 H35       -11.7600   -1.4822   56.9923 H       1  ZINC001023148918    0.1100
     36 H36       -12.4656   -2.5931   58.1907 H       1  ZINC001023148918    0.0900
     37 H37       -11.5931   -1.5944   54.9836 H       1  ZINC001023148918    0.4100
     38 H38        -9.4996   -1.5511   54.0219 H       1  ZINC001023148918    0.0800
     39 H39       -10.0541   -1.1065   52.3788 H       1  ZINC001023148918    0.0900
     40 H40        -8.0790    2.3853   51.5742 H       1  ZINC001023148918    0.0800
     41 H41        -6.8232    3.2335   52.5355 H       1  ZINC001023148918    0.0900
     42 H42        -4.1391    3.4136   50.1803 H       1  ZINC001023148918    0.0800
     43 H43        -4.7952    3.7790   51.8101 H       1  ZINC001023148918    0.0800
     44 H44        -3.3259    1.3838   50.9627 H       1  ZINC001023148918    0.0800
     45 H45        -3.9822    1.7492   52.5925 H       1  ZINC001023148918    0.0800
     46 H46        -7.9368    1.2860   54.8912 H       1  ZINC001023148918    0.0800
     47 H47        -8.8155    2.2441   53.6669 H       1  ZINC001023148918    0.0900
     48 H48       -10.7052    2.9073   54.4439 H       1  ZINC001023148918    0.3900
     49 H49       -16.0094   -0.4784   54.8655 H       1  ZINC001023148918    0.1600
@<TRIPOS>BOND
     1     1     2    1
     2     1    31    1
     3     1    32    1
     4     1    33    1
     5     2    30    1
     6     2     3    2
     7     3     4    1
     8     4     5    1
     9     4     6    1
    10     5    34    1
    11     5    35    1
    12     5    36    1
    13     6     7    1
    14     6    30    2
    15     7     8    2
    16     7     9   am
    17     9    10    1
    18     9    37    1
    19    10    11    1
    20    10    27    1
    21    10    12    1
    22    12    13    1
    23    12    38    1
    24    12    39    1
    25    13    14   am
    26    13    26    1
    27    14    15    2
    28    14    16    1
    29    16    17    1
    30    16    23    1
    31    16    18    1
    32    18    19    1
    33    18    40    1
    34    18    41    1
    35    19    20    1
    36    19    25    1
    37    19    21    1
    38    21    22    1
    39    21    42    1
    40    21    43    1
    41    22    23    1
    42    22    44    1
    43    22    45    1
    44    23    24    1
    45    23    25    1
    46    26    27    1
    47    26    46    1
    48    26    47    1
    49    27    28    1
    50    27    29    1
    51    29    48    1
    52    30    49    1
@<TRIPOS>SUBSTRUCTURE
     1 ZINC001023148918        1 TEMP              0 ****  ****    0 ROOT


##########                                Name:    ZINC000265786263
##########                DOCK_Rotatable_Bonds:                   7
##########                         Heavy_Atoms:                  28
##########                    Molecular_Weight:             386.451
##########                DOCK_Rotatable_Bonds:                   7
##########                       Formal_Charge:           0.0499992
##########                     HBond_Acceptors:                   8
##########                        HBond_Donors:                   2
##########                         Heavy_Atoms:                  28
##########                          Grid_Score:          -29.784840
##########                     Grid_vdw_energy:          -28.541685
##########                      Grid_es_energy:           -1.243154
##########           Internal_energy_repulsive:           21.178129

@<TRIPOS>MOLECULE
ZINC000265786263
 54 57 1 0 0
SMALL
USER_CHARGES


@<TRIPOS>ATOM
      1 C1         -5.4858    4.3867   51.3037 C.3     1  ZINC000265786263   -0.1500
      2 C2         -4.9139    2.9879   51.5432 C.3     1  ZINC000265786263    0.1600
      3 C3         -5.9315    2.1101   52.2746 C.3     1  ZINC000265786263   -0.1600
      4 C4         -6.8505    1.2335   51.4216 C.3     1  ZINC000265786263   -0.1600
      5 C5         -5.7191    0.5956   52.2301 C.3     1  ZINC000265786263   -0.1600
      6 N6         -4.5105    2.3678   50.2694 N.am    1  ZINC000265786263   -0.7100
      7 C7         -3.1864    2.1450   50.3522 C.2     1  ZINC000265786263    0.7100
      8 O8         -2.5295    1.6392   49.4635 O.2     1  ZINC000265786263   -0.5400
      9 N9         -2.6735    2.5423   51.5223 N.am    1  ZINC000265786263   -0.5600
     10 C10        -1.2590    2.4214   51.8844 C.3     1  ZINC000265786263    0.1000
     11 C11        -0.5371    3.6935   51.5214 C.2     1  ZINC000265786263    0.5100
     12 O12        -1.1685    4.6915   51.2454 O.2     1  ZINC000265786263   -0.5300
     13 N13         0.8102    3.7221   51.5036 N.am    1  ZINC000265786263   -0.6100
     14 C14         1.5951    2.5210   51.8273 C.3     1  ZINC000265786263    0.1100
     15 C15         2.6170    2.2912   50.7088 C.3     1  ZINC000265786263    0.0400
     16 N16         3.4061    3.5145   50.5119 N.3     1  ZINC000265786263   -0.5300
     17 C17         4.5091    3.2835   49.5696 C.3     1  ZINC000265786263    0.0900
     18 C18         3.9566    3.1388   48.1751 C.ar    1  ZINC000265786263   -0.0600
     19 C19         3.8767    4.2420   47.3459 C.ar    1  ZINC000265786263   -0.1300
     20 C20         3.3701    4.1125   46.0657 C.ar    1  ZINC000265786263   -0.1000
     21 C21         2.9426    2.8799   45.6123 C.ar    1  ZINC000265786263   -0.1400
     22 C22         3.0217    1.7710   46.4427 C.ar    1  ZINC000265786263    0.1100
     23 O23         2.6019    0.5571   45.9988 O.3     1  ZINC000265786263   -0.5000
     24 C24         3.5354    1.9024   47.7244 C.ar    1  ZINC000265786263   -0.1200
     25 C25         2.5590    4.6293   50.0676 C.3     1  ZINC000265786263    0.0400
     26 C26         1.5347    4.9533   51.1539 C.3     1  ZINC000265786263    0.1200
     27 C27        -3.6185    3.0683   52.3263 C.2     1  ZINC000265786263    0.5400
     28 O28        -3.4645    3.5139   53.4433 O.2     1  ZINC000265786263   -0.4500
     29 H29        -4.7627    4.9849   50.7493 H       1  ZINC000265786263    0.0700
     30 H30        -6.4089    4.3083   50.7295 H       1  ZINC000265786263    0.0800
     31 H31        -5.6933    4.8633   52.2618 H       1  ZINC000265786263    0.0900
     32 H32        -6.3460    2.5336   53.1895 H       1  ZINC000265786263    0.1100
     33 H33        -7.8702    1.0801   51.7752 H       1  ZINC000265786263    0.1000
     34 H34        -6.7304    1.2821   50.3394 H       1  ZINC000265786263    0.1100
     35 H35        -4.8545    0.2245   51.6799 H       1  ZINC000265786263    0.1000
     36 H36        -5.9944    0.0226   53.1157 H       1  ZINC000265786263    0.1000
     37 H37        -5.0872    2.1602   49.5177 H       1  ZINC000265786263    0.4400
     38 H38        -1.1722    2.2477   52.9569 H       1  ZINC000265786263    0.1300
     39 H39        -0.8158    1.5852   51.3438 H       1  ZINC000265786263    0.1300
     40 H40         2.1152    2.6677   52.7739 H       1  ZINC000265786263    0.0900
     41 H41         0.9320    1.6590   51.9003 H       1  ZINC000265786263    0.0900
     42 H42         3.2800    1.4712   50.9847 H       1  ZINC000265786263    0.0900
     43 H43         2.0951    2.0424   49.7848 H       1  ZINC000265786263    0.0400
     44 H44         5.1974    4.1281   49.6019 H       1  ZINC000265786263    0.0900
     45 H45         5.0391    2.3722   49.8469 H       1  ZINC000265786263    0.0500
     46 H46         4.2103    5.2068   47.6986 H       1  ZINC000265786263    0.1200
     47 H47         3.3086    4.9760   45.4199 H       1  ZINC000265786263    0.1300
     48 H48         2.5467    2.7794   44.6125 H       1  ZINC000265786263    0.1300
     49 H49         2.2584    0.5661   45.0948 H       1  ZINC000265786263    0.3900
     50 H50         3.5979    1.0408   48.3725 H       1  ZINC000265786263    0.1300
     51 H51         3.1799    5.5050   49.8784 H       1  ZINC000265786263    0.1000
     52 H52         2.0379    4.3479   49.1525 H       1  ZINC000265786263    0.0400
     53 H53         0.8326    5.7006   50.7840 H       1  ZINC000265786263    0.1000
     54 H54         2.0464    5.3337   52.0380 H       1  ZINC000265786263    0.0800
@<TRIPOS>BOND
     1     1     2    1
     2     1    29    1
     3     1    30    1
     4     1    31    1
     5     2    27    1
     6     2     3    1
     7     2     6    1
     8     3     5    1
     9     3     4    1
    10     3    32    1
    11     4     5    1
    12     4    33    1
    13     4    34    1
    14     5    35    1
    15     5    36    1
    16     6     7   am
    17     6    37    1
    18     7     8    2
    19     7     9   am
    20     9    10    1
    21     9    27   am
    22    10    11    1
    23    10    38    1
    24    10    39    1
    25    11    12    2
    26    11    13   am
    27    13    26    1
    28    13    14    1
    29    14    15    1
    30    14    40    1
    31    14    41    1
    32    15    16    1
    33    15    42    1
    34    15    43    1
    35    16    17    1
    36    16    25    1
    37    17    18    1
    38    17    44    1
    39    17    45    1
    40    18    24   ar
    41    18    19   ar
    42    19    20   ar
    43    19    46    1
    44    20    21   ar
    45    20    47    1
    46    21    22   ar
    47    21    48    1
    48    22    23    1
    49    22    24   ar
    50    23    49    1
    51    24    50    1
    52    25    26    1
    53    25    51    1
    54    25    52    1
    55    26    53    1
    56    26    54    1
    57    27    28    2
@<TRIPOS>SUBSTRUCTURE
     1 ZINC000265786263        1 TEMP              0 ****  ****    0 ROOT


##########                                Name:    ZINC000451500596
##########                DOCK_Rotatable_Bonds:                   7
##########                         Heavy_Atoms:                  25
##########                    Molecular_Weight:             365.497
##########                DOCK_Rotatable_Bonds:                   7
##########                       Formal_Charge:           0.0400004
##########                     HBond_Acceptors:                   7
##########                        HBond_Donors:                   2
##########                         Heavy_Atoms:                  25
##########                          Grid_Score:          -29.779121
##########                     Grid_vdw_energy:          -29.245939
##########                      Grid_es_energy:           -0.533183
##########           Internal_energy_repulsive:            8.790207

@<TRIPOS>MOLECULE
ZINC000451500596
 52 54 1 0 0
SMALL
USER_CHARGES


@<TRIPOS>ATOM
      1 C1        -10.7074   -1.5406   59.1828 C.3     1  ZINC000451500596   -0.6700
      2 S2        -11.0149   -2.1996   57.5210 S.o2    1  ZINC000451500596    2.6100
      3 O3        -10.1308   -3.2761   57.2400 O.2     1  ZINC000451500596   -0.9500
      4 O4        -12.4107   -2.3162   57.2812 O.2     1  ZINC000451500596   -0.9600
      5 N5        -10.5247   -0.9915   56.5001 N.am    1  ZINC000451500596   -1.1200
      6 C6        -10.6267   -1.1716   55.0498 C.3     1  ZINC000451500596    0.1200
      7 C7        -10.8359    0.1883   54.3805 C.3     1  ZINC000451500596   -0.1000
      8 H8        -10.0909    0.8989   54.7383 H       1  ZINC000451500596    0.0900
      9 C9        -12.2547    0.7133   54.6826 C.3     1  ZINC000451500596   -0.1200
     10 C10       -12.6881    1.4132   53.3706 C.3     1  ZINC000451500596   -0.1300
     11 C11       -12.0989    0.4866   52.2781 C.3     1  ZINC000451500596   -0.1300
     12 C12       -10.7356    0.0444   52.8518 C.3     1  ZINC000451500596    0.1400
     13 H13       -10.5383   -0.9943   52.5868 H       1  ZINC000451500596    0.1000
     14 N14        -9.6699    0.9055   52.3332 N.am    1  ZINC000451500596   -0.7200
     15 C15        -8.4113    0.4340   52.2331 C.2     1  ZINC000451500596    0.5300
     16 O16        -8.1607   -0.7028   52.5738 O.2     1  ZINC000451500596   -0.5300
     17 C17        -7.3153    1.3191   51.6980 C.3     1  ZINC000451500596   -0.1300
     18 H18        -7.1812    1.1600   50.6281 H       1  ZINC000451500596    0.1000
     19 C19        -7.6198    2.8107   51.9968 C.3     1  ZINC000451500596   -0.1200
     20 C20        -6.1968    3.4223   52.0183 C.3     1  ZINC000451500596    0.0500
     21 N21        -5.3501    2.3866   52.6477 N.3     1  ZINC000451500596   -0.4900
     22 C22        -4.0633    2.3939   52.1046 C.ar    1  ZINC000451500596    0.0800
     23 C23        -2.9741    2.7285   52.8992 C.ar    1  ZINC000451500596   -0.0900
     24 C24        -1.7031    2.7343   52.3591 C.ar    1  ZINC000451500596   -0.1100
     25 C25        -1.5140    2.4081   51.0287 C.ar    1  ZINC000451500596   -0.1200
     26 C26        -2.5960    2.0746   50.2347 C.ar    1  ZINC000451500596   -0.1100
     27 C27        -3.8691    2.0612   50.7699 C.ar    1  ZINC000451500596   -0.1500
     28 C28        -5.9943    1.0710   52.4563 C.3     1  ZINC000451500596    0.0600
     29 H29        -9.6461   -1.3187   59.2950 H       1  ZINC000451500596    0.1300
     30 H30       -11.2864   -0.6281   59.3247 H       1  ZINC000451500596    0.1300
     31 H31       -11.0048   -2.2791   59.9274 H       1  ZINC000451500596    0.1300
     32 H32       -10.1699   -0.1645   56.8623 H       1  ZINC000451500596    0.4200
     33 H33        -9.7089   -1.6239   54.6743 H       1  ZINC000451500596    0.0700
     34 H34       -11.4715   -1.8219   54.8230 H       1  ZINC000451500596    0.0900
     35 H35       -12.9263   -0.1135   54.9137 H       1  ZINC000451500596    0.0800
     36 H36       -12.2300    1.4274   55.5057 H       1  ZINC000451500596    0.0700
     37 H37       -13.7748    1.4556   53.2962 H       1  ZINC000451500596    0.0700
     38 H38       -12.2561    2.4117   53.3045 H       1  ZINC000451500596    0.0700
     39 H39       -12.7453   -0.3769   52.1210 H       1  ZINC000451500596    0.0800
     40 H40       -11.9605    1.0353   51.3466 H       1  ZINC000451500596    0.0700
     41 H41        -9.8700    1.8150   52.0618 H       1  ZINC000451500596    0.4000
     42 H42        -8.2228    3.2527   51.2036 H       1  ZINC000451500596    0.0800
     43 H43        -8.1078    2.9232   52.9649 H       1  ZINC000451500596    0.0800
     44 H44        -5.8558    3.6259   51.0032 H       1  ZINC000451500596    0.0600
     45 H45        -6.1851    4.3353   52.6137 H       1  ZINC000451500596    0.0900
     46 H46        -3.1212    2.9840   53.9383 H       1  ZINC000451500596    0.1300
     47 H47        -0.8559    2.9943   52.9765 H       1  ZINC000451500596    0.1300
     48 H48        -0.5191    2.4142   50.6086 H       1  ZINC000451500596    0.1200
     49 H49        -2.4448    1.8203   49.1961 H       1  ZINC000451500596    0.1200
     50 H50        -4.7137    1.8004   50.1494 H       1  ZINC000451500596    0.1200
     51 H51        -6.2049    0.6169   53.4245 H       1  ZINC000451500596    0.1000
     52 H52        -5.3428    0.4205   51.8729 H       1  ZINC000451500596    0.0700
@<TRIPOS>BOND
     1     1     2    1
     2     1    29    1
     3     1    30    1
     4     1    31    1
     5     2     3    2
     6     2     4    2
     7     2     5   am
     8     5     6    1
     9     5    32    1
    10     6     7    1
    11     6    33    1
    12     6    34    1
    13     7     8    1
    14     7    12    1
    15     7     9    1
    16     9    10    1
    17     9    35    1
    18     9    36    1
    19    10    11    1
    20    10    37    1
    21    10    38    1
    22    11    12    1
    23    11    39    1
    24    11    40    1
    25    12    13    1
    26    12    14    1
    27    14    15   am
    28    14    41    1
    29    15    16    2
    30    15    17    1
    31    17    18    1
    32    17    28    1
    33    17    19    1
    34    19    20    1
    35    19    42    1
    36    19    43    1
    37    20    21    1
    38    20    44    1
    39    20    45    1
    40    21    22    1
    41    21    28    1
    42    22    27   ar
    43    22    23   ar
    44    23    24   ar
    45    23    46    1
    46    24    25   ar
    47    24    47    1
    48    25    26   ar
    49    25    48    1
    50    26    27   ar
    51    26    49    1
    52    27    50    1
    53    28    51    1
    54    28    52    1
@<TRIPOS>SUBSTRUCTURE
     1 ZINC000451500596        1 TEMP              0 ****  ****    0 ROOT


##########                                Name:    ZINC001344051361
##########                DOCK_Rotatable_Bonds:                   8
##########                         Heavy_Atoms:                  28
##########                    Molecular_Weight:             379.456
##########                DOCK_Rotatable_Bonds:                   8
##########                       Formal_Charge:          -0.0100006
##########                     HBond_Acceptors:                   5
##########                        HBond_Donors:                   0
##########                         Heavy_Atoms:                  28
##########                          Grid_Score:          -29.775126
##########                     Grid_vdw_energy:          -29.858204
##########                      Grid_es_energy:            0.083079
##########           Internal_energy_repulsive:           20.031103

@<TRIPOS>MOLECULE
ZINC001344051361
 53 56 1 0 0
SMALL
USER_CHARGES


@<TRIPOS>ATOM
      1 O1         -7.4000    1.0893   51.8063 O.2     1  ZINC001344051361   -0.4800
      2 C2         -7.8134    1.8737   52.6271 C.2     1  ZINC001344051361    0.4800
      3 O3         -8.6076    1.4480   53.6219 O.3     1  ZINC001344051361   -0.3500
      4 C4         -9.4075    0.2636   53.3659 C.3     1  ZINC001344051361    0.0700
      5 C5        -10.4860    0.1337   54.4434 C.3     1  ZINC001344051361   -0.1000
      6 H6        -10.1309    0.5852   55.3698 H       1  ZINC001344051361    0.0900
      7 C7        -11.7580    0.8484   53.9817 C.3     1  ZINC001344051361   -0.1200
      8 C8        -12.8266    0.7473   55.0726 C.3     1  ZINC001344051361   -0.1300
      9 C9        -13.1623   -0.7271   55.3177 C.3     1  ZINC001344051361    0.0800
     10 N10       -11.9201   -1.4509   55.6208 N.am    1  ZINC001344051361   -0.6100
     11 C11       -11.8148   -2.1958   56.7391 C.2     1  ZINC001344051361    0.5600
     12 O12       -10.7817   -2.7899   56.9785 O.2     1  ZINC001344051361   -0.5300
     13 C13       -12.9558   -2.2903   57.6746 C.ar    1  ZINC001344051361   -0.1300
     14 C14       -14.0688   -3.0659   57.3464 C.ar    1  ZINC001344051361   -0.1000
     15 C15       -15.1300   -3.1502   58.2241 C.ar    1  ZINC001344051361   -0.1300
     16 C16       -15.0926   -2.4676   59.4269 C.ar    1  ZINC001344051361   -0.0900
     17 C17       -13.9926   -1.6966   59.7581 C.ar    1  ZINC001344051361   -0.1300
     18 C18       -12.9221   -1.6089   58.8922 C.ar    1  ZINC001344051361   -0.0600
     19 C19       -10.7946   -1.3477   54.6820 C.3     1  ZINC001344051361    0.1200
     20 C20        -7.4321    3.3289   52.5376 C.3     1  ZINC001344051361    0.0200
     21 O21        -6.1290    3.6557   53.0248 O.3     1  ZINC001344051361   -0.2500
     22 C22        -5.0694    3.1726   52.3245 C.ar    1  ZINC001344051361    0.1200
     23 C23        -5.2274    2.7919   50.9998 C.ar    1  ZINC001344051361   -0.2000
     24 C24        -4.1485    2.3016   50.2898 C.ar    1  ZINC001344051361   -0.0800
     25 C25        -2.9120    2.1898   50.8985 C.ar    1  ZINC001344051361   -0.1500
     26 C26        -2.7521    2.5682   52.2187 C.ar    1  ZINC001344051361   -0.0800
     27 C27        -3.8264    3.0649   52.9311 C.ar    1  ZINC001344051361   -0.1400
     28 C28        -7.9602    4.1254   51.3428 C.3     1  ZINC001344051361   -0.1700
     29 C29        -8.5412    4.3635   52.7381 C.3     1  ZINC001344051361   -0.1100
     30 H30        -9.8801    0.3489   52.3873 H       1  ZINC001344051361    0.0800
     31 H31        -8.7673   -0.6183   53.3845 H       1  ZINC001344051361    0.0800
     32 H32       -11.5350    1.8977   53.7879 H       1  ZINC001344051361    0.0700
     33 H33       -12.1261    0.3811   53.0684 H       1  ZINC001344051361    0.0700
     34 H34       -12.4498    1.1926   55.9934 H       1  ZINC001344051361    0.0700
     35 H35       -13.7242    1.2765   54.7527 H       1  ZINC001344051361    0.0800
     36 H36       -13.8486   -0.8103   56.1604 H       1  ZINC001344051361    0.1100
     37 H37       -13.6233   -1.1501   54.4252 H       1  ZINC001344051361    0.0700
     38 H38       -14.0995   -3.5985   56.4075 H       1  ZINC001344051361    0.1400
     39 H39       -15.9918   -3.7501   57.9714 H       1  ZINC001344051361    0.1300
     40 H40       -15.9261   -2.5367   60.1103 H       1  ZINC001344051361    0.1300
     41 H41       -13.9698   -1.1661   60.6985 H       1  ZINC001344051361    0.1300
     42 H42       -12.0638   -1.0070   59.1520 H       1  ZINC001344051361    0.1300
     43 H43       -11.0621   -1.8212   53.7374 H       1  ZINC001344051361    0.0700
     44 H44        -9.9193   -1.8406   55.1052 H       1  ZINC001344051361    0.1000
     45 H45        -6.1931    2.8783   50.5241 H       1  ZINC001344051361    0.1300
     46 H46        -4.2710    2.0050   49.2586 H       1  ZINC001344051361    0.1300
     47 H47        -2.0699    1.8059   50.3419 H       1  ZINC001344051361    0.1300
     48 H48        -1.7854    2.4796   52.6920 H       1  ZINC001344051361    0.1300
     49 H49        -3.7010    3.3604   53.9624 H       1  ZINC001344051361    0.1300
     50 H50        -7.3139    4.8989   50.9281 H       1  ZINC001344051361    0.1200
     51 H51        -8.5836    3.5969   50.6216 H       1  ZINC001344051361    0.1200
     52 H52        -9.5468    3.9917   52.9347 H       1  ZINC001344051361    0.1200
     53 H53        -8.2770    5.2936   53.2413 H       1  ZINC001344051361    0.1200
@<TRIPOS>BOND
     1     1     2    2
     2     2     3    1
     3     2    20    1
     4     3     4    1
     5     4     5    1
     6     4    30    1
     7     4    31    1
     8     5     6    1
     9     5    19    1
    10     5     7    1
    11     7     8    1
    12     7    32    1
    13     7    33    1
    14     8     9    1
    15     8    34    1
    16     8    35    1
    17     9    10    1
    18     9    36    1
    19     9    37    1
    20    10    11   am
    21    10    19    1
    22    11    12    2
    23    11    13    1
    24    13    18   ar
    25    13    14   ar
    26    14    15   ar
    27    14    38    1
    28    15    16   ar
    29    15    39    1
    30    16    17   ar
    31    16    40    1
    32    17    18   ar
    33    17    41    1
    34    18    42    1
    35    19    43    1
    36    19    44    1
    37    20    29    1
    38    20    21    1
    39    20    28    1
    40    21    22    1
    41    22    27   ar
    42    22    23   ar
    43    23    24   ar
    44    23    45    1
    45    24    25   ar
    46    24    46    1
    47    25    26   ar
    48    25    47    1
    49    26    27   ar
    50    26    48    1
    51    27    49    1
    52    28    29    1
    53    28    50    1
    54    28    51    1
    55    29    52    1
    56    29    53    1
@<TRIPOS>SUBSTRUCTURE
     1 ZINC001344051361        1 TEMP              0 ****  ****    0 ROOT


##########                                Name:    ZINC000179211660
##########                DOCK_Rotatable_Bonds:                   6
##########                         Heavy_Atoms:                  23
##########                    Molecular_Weight:             385.208
##########                DOCK_Rotatable_Bonds:                   6
##########                       Formal_Charge:        -1.78814e-07
##########                     HBond_Acceptors:                   6
##########                        HBond_Donors:                   1
##########                         Heavy_Atoms:                  23
##########                          Grid_Score:          -29.737555
##########                     Grid_vdw_energy:          -29.241203
##########                      Grid_es_energy:           -0.496352
##########           Internal_energy_repulsive:           14.982716

@<TRIPOS>MOLECULE
ZINC000179211660
 38 39 1 0 0
SMALL
USER_CHARGES


@<TRIPOS>ATOM
      1 C1         -9.9204   -0.7679   52.4687 C.3     1  ZINC000179211660    0.0300
      2 O2         -8.6147   -0.2481   52.2099 O.3     1  ZINC000179211660   -0.2700
      3 C3         -8.1647    0.7304   53.0389 C.ar    1  ZINC000179211660    0.1500
      4 C4         -8.9839    1.2187   54.0461 C.ar    1  ZINC000179211660   -0.2200
      5 C5         -8.5239    2.2131   54.8879 C.ar    1  ZINC000179211660   -0.0700
      6 C6         -7.2486    2.7218   54.7266 C.ar    1  ZINC000179211660   -0.1700
      7 C7         -6.4302    2.2369   53.7228 C.ar    1  ZINC000179211660   -0.0700
      8 C8         -6.8830    1.2386   52.8826 C.ar    1  ZINC000179211660   -0.1500
      9 C9         -5.9905    0.7104   51.7893 C.3     1  ZINC000179211660    0.1800
     10 N10        -5.2052    1.8111   51.2255 N.am    1  ZINC000179211660   -0.6200
     11 C11        -5.8810    3.0055   50.7127 C.3     1  ZINC000179211660    0.0700
     12 C12        -3.8610    1.7250   51.1785 C.2     1  ZINC000179211660    0.7000
     13 O13        -3.3002    0.7330   51.6026 O.2     1  ZINC000179211660   -0.5300
     14 N14        -3.1385    2.7383   50.6613 N.am    1  ZINC000179211660   -0.6800
     15 C15        -1.7411    2.6488   50.6124 C.ar    1  ZINC000179211660    0.1900
     16 C16        -0.9748    3.1736   51.6432 C.ar    1  ZINC000179211660   -0.1400
     17 C17         0.4051    3.0835   51.5927 C.ar    1  ZINC000179211660    0.1500
     18 F18         1.1520    3.5942   52.5961 F       1  ZINC000179211660   -0.1100
     19 C19         1.0212    2.4696   50.5146 C.ar    1  ZINC000179211660   -0.1300
     20 Br20        2.9073    2.3476   50.4492 Br      1  ZINC000179211660   -0.0100
     21 C21         0.2591    1.9452   49.4858 C.ar    1  ZINC000179211660   -0.0700
     22 C22        -1.1201    2.0288   49.5336 C.ar    1  ZINC000179211660    0.0600
     23 F23        -1.8637    1.5164   48.5287 F       1  ZINC000179211660   -0.1300
     24 H24       -10.1558   -1.5400   51.7361 H       1  ZINC000179211660    0.1000
     25 H25        -9.9488   -1.1967   53.4704 H       1  ZINC000179211660    0.0500
     26 H26       -10.6525    0.0364   52.3968 H       1  ZINC000179211660    0.0500
     27 H27        -9.9805    0.8221   54.1721 H       1  ZINC000179211660    0.1300
     28 H28        -9.1614    2.5936   55.6722 H       1  ZINC000179211660    0.1200
     29 H29        -6.8910    3.4993   55.3853 H       1  ZINC000179211660    0.1200
     30 H30        -5.4344    2.6362   53.5986 H       1  ZINC000179211660    0.1300
     31 H31        -5.3179   -0.0420   52.2012 H       1  ZINC000179211660    0.0900
     32 H32        -6.6016    0.2617   51.0062 H       1  ZINC000179211660    0.1000
     33 H33        -5.9884    3.7350   51.5155 H       1  ZINC000179211660    0.0600
     34 H34        -5.2908    3.4383   49.9050 H       1  ZINC000179211660    0.0600
     35 H35        -6.8667    2.7319   50.3363 H       1  ZINC000179211660    0.0800
     36 H36        -3.5858    3.5297   50.3229 H       1  ZINC000179211660    0.4100
     37 H37        -1.4548    3.6522   52.4839 H       1  ZINC000179211660    0.1800
     38 H38         0.7419    1.4670   48.6464 H       1  ZINC000179211660    0.1600
@<TRIPOS>BOND
     1     1     2    1
     2     1    24    1
     3     1    25    1
     4     1    26    1
     5     2     3    1
     6     3     8   ar
     7     3     4   ar
     8     4     5   ar
     9     4    27    1
    10     5     6   ar
    11     5    28    1
    12     6     7   ar
    13     6    29    1
    14     7     8   ar
    15     7    30    1
    16     8     9    1
    17     9    10    1
    18     9    31    1
    19     9    32    1
    20    10    11    1
    21    10    12   am
    22    11    33    1
    23    11    34    1
    24    11    35    1
    25    12    13    2
    26    12    14   am
    27    14    15    1
    28    14    36    1
    29    15    22   ar
    30    15    16   ar
    31    16    17   ar
    32    16    37    1
    33    17    18    1
    34    17    19   ar
    35    19    20    1
    36    19    21   ar
    37    21    22   ar
    38    21    38    1
    39    22    23    1
@<TRIPOS>SUBSTRUCTURE
     1 ZINC000179211660        1 TEMP              0 ****  ****    0 ROOT


##########                                Name:    ZINC000863246516
##########                DOCK_Rotatable_Bonds:                   5
##########                         Heavy_Atoms:                  25
##########                    Molecular_Weight:             356.489
##########                DOCK_Rotatable_Bonds:                   5
##########                       Formal_Charge:         -0.00999938
##########                     HBond_Acceptors:                   5
##########                        HBond_Donors:                   0
##########                         Heavy_Atoms:                  25
##########                          Grid_Score:          -29.728186
##########                     Grid_vdw_energy:          -29.332455
##########                      Grid_es_energy:           -0.395730
##########           Internal_energy_repulsive:           10.400252

@<TRIPOS>MOLECULE
ZINC000863246516
 49 52 1 0 0
SMALL
USER_CHARGES


@<TRIPOS>ATOM
      1 C1          5.0584    0.4911   51.5021 C.3     1  ZINC000863246516   -0.0600
      2 C2          3.8747    1.1040   50.7990 C.2     1  ZINC000863246516   -0.2000
      3 C3          3.0801    2.0644   51.2504 C.2     1  ZINC000863246516    0.0900
      4 C4          3.2871    2.6899   52.6057 C.3     1  ZINC000863246516   -0.1000
      5 N5          2.0670    2.4584   50.4281 N.am    1  ZINC000863246516   -0.5300
      6 C6          1.1288    3.5116   50.8240 C.3     1  ZINC000863246516    0.1200
      7 C7         -0.1266    2.8766   51.4254 C.3     1  ZINC000863246516   -0.1500
      8 C8         -1.0682    3.9608   51.8826 C.2     1  ZINC000863246516    0.5400
      9 O9         -0.6304    4.9618   52.4092 O.2     1  ZINC000863246516   -0.5300
     10 N10        -2.3967    3.8181   51.7063 N.am    1  ZINC000863246516   -0.6100
     11 C11        -3.4155    4.7960   52.1050 C.3     1  ZINC000863246516    0.1100
     12 C12        -4.6941    4.4495   51.3188 C.3     1  ZINC000863246516   -0.1300
     13 H13        -4.8983    5.0835   50.4561 H       1  ZINC000863246516    0.1000
     14 C14        -5.8914    4.1247   52.2274 C.3     1  ZINC000863246516   -0.1200
     15 C15        -5.2650    2.7366   52.4362 C.3     1  ZINC000863246516   -0.0600
     16 H16        -4.5722    2.6929   53.2766 H       1  ZINC000863246516    0.1000
     17 C17        -6.2731    1.6164   52.4509 C.ar    1  ZINC000863246516   -0.0700
     18 C18        -7.4688    1.7714   53.1271 C.ar    1  ZINC000863246516   -0.1200
     19 C19        -8.3933    0.7439   53.1406 C.ar    1  ZINC000863246516   -0.1200
     20 C20        -8.1226   -0.4385   52.4775 C.ar    1  ZINC000863246516   -0.1200
     21 C21        -6.9273   -0.5930   51.8005 C.ar    1  ZINC000863246516   -0.1200
     22 C22        -6.0044    0.4361   51.7835 C.ar    1  ZINC000863246516   -0.1200
     23 C23        -4.5630    2.9276   51.0614 C.3     1  ZINC000863246516   -0.1100
     24 H24        -5.0945    2.5292   50.1972 H       1  ZINC000863246516    0.1200
     25 C25        -3.0500    2.6640   51.0803 C.3     1  ZINC000863246516    0.1200
     26 C26         1.9648    1.8417   49.2400 C.2     1  ZINC000863246516    0.4800
     27 O27         1.1342    2.0504   48.3735 O.2     1  ZINC000863246516   -0.4700
     28 S28         3.2529    0.6998   49.1894 S.3     1  ZINC000863246516    0.0100
     29 H29         5.5059   -0.2706   50.8636 H       1  ZINC000863246516    0.0700
     30 H30         5.7954    1.2655   51.7150 H       1  ZINC000863246516    0.0800
     31 H31         4.7301    0.0352   52.4362 H       1  ZINC000863246516    0.0800
     32 H32         4.1472    2.2288   53.0912 H       1  ZINC000863246516    0.0900
     33 H33         3.4655    3.7588   52.4891 H       1  ZINC000863246516    0.0800
     34 H34         2.3982    2.5345   53.2173 H       1  ZINC000863246516    0.0800
     35 H35         1.5996    4.1578   51.5649 H       1  ZINC000863246516    0.1000
     36 H36         0.8544    4.1013   49.9494 H       1  ZINC000863246516    0.1000
     37 H37        -0.6192    2.2616   50.6722 H       1  ZINC000863246516    0.1000
     38 H38         0.1525    2.2551   52.2762 H       1  ZINC000863246516    0.1000
     39 H39        -3.6046    4.7219   53.1760 H       1  ZINC000863246516    0.0700
     40 H40        -3.0843    5.8034   51.8531 H       1  ZINC000863246516    0.0800
     41 H41        -5.9266    4.7279   53.1345 H       1  ZINC000863246516    0.0800
     42 H42        -6.8446    4.0978   51.6994 H       1  ZINC000863246516    0.0900
     43 H43        -7.6804    2.6951   53.6451 H       1  ZINC000863246516    0.1200
     44 H44        -9.3273    0.8647   53.6695 H       1  ZINC000863246516    0.1200
     45 H45        -8.8446   -1.2414   52.4887 H       1  ZINC000863246516    0.1200
     46 H46        -6.7154   -1.5169   51.2828 H       1  ZINC000863246516    0.1200
     47 H47        -5.0705    0.3152   51.2547 H       1  ZINC000863246516    0.1200
     48 H48        -2.6874    2.5246   50.0618 H       1  ZINC000863246516    0.0700
     49 H49        -2.8383    1.7733   51.6720 H       1  ZINC000863246516    0.0700
@<TRIPOS>BOND
     1     1     2    1
     2     1    29    1
     3     1    30    1
     4     1    31    1
     5     2    28    1
     6     2     3    2
     7     3     4    1
     8     3     5    1
     9     4    32    1
    10     4    33    1
    11     4    34    1
    12     5     6    1
    13     5    26   am
    14     6     7    1
    15     6    35    1
    16     6    36    1
    17     7     8    1
    18     7    37    1
    19     7    38    1
    20     8     9    2
    21     8    10   am
    22    10    25    1
    23    10    11    1
    24    11    12    1
    25    11    39    1
    26    11    40    1
    27    12    13    1
    28    12    23    1
    29    12    14    1
    30    14    15    1
    31    14    41    1
    32    14    42    1
    33    15    16    1
    34    15    17    1
    35    15    23    1
    36    17    22   ar
    37    17    18   ar
    38    18    19   ar
    39    18    43    1
    40    19    20   ar
    41    19    44    1
    42    20    21   ar
    43    20    45    1
    44    21    22   ar
    45    21    46    1
    46    22    47    1
    47    23    24    1
    48    23    25    1
    49    25    48    1
    50    25    49    1
    51    26    27    2
    52    26    28    1
@<TRIPOS>SUBSTRUCTURE
     1 ZINC000863246516        1 TEMP              0 ****  ****    0 ROOT


##########                                Name:    ZINC000464867530
##########                DOCK_Rotatable_Bonds:                   8
##########                         Heavy_Atoms:                  30
##########                    Molecular_Weight:              422.49
##########                DOCK_Rotatable_Bonds:                   8
##########                       Formal_Charge:         -0.00999994
##########                     HBond_Acceptors:                   7
##########                        HBond_Donors:                   0
##########                         Heavy_Atoms:                  30
##########                          Grid_Score:          -29.726574
##########                     Grid_vdw_energy:          -29.096153
##########                      Grid_es_energy:           -0.630421
##########           Internal_energy_repulsive:           35.508991

@<TRIPOS>MOLECULE
ZINC000464867530
 59 62 1 0 0
SMALL
USER_CHARGES


@<TRIPOS>ATOM
      1 C1        -17.2594   -1.0268   60.0566 C.3     1  ZINC000464867530   -0.1500
      2 C2        -17.4367   -2.2854   59.2048 C.3     1  ZINC000464867530   -0.1400
      3 C3        -16.2153   -3.1915   59.3735 C.3     1  ZINC000464867530    0.0900
      4 N4        -15.1319   -2.7163   58.5094 N.am    1  ZINC000464867530   -0.6100
      5 C5        -15.0999   -3.1009   57.0961 C.3     1  ZINC000464867530    0.0700
      6 C6        -15.6718   -1.9651   56.2453 C.3     1  ZINC000464867530    0.4300
      7 F7        -16.9014   -2.3594   55.7069 F       1  ZINC000464867530   -0.1700
      8 F8        -15.8545   -0.8309   57.0437 F       1  ZINC000464867530   -0.1800
      9 F9        -14.7824   -1.6666   55.2075 F       1  ZINC000464867530   -0.1800
     10 C10       -14.1647   -1.9253   59.0146 C.2     1  ZINC000464867530    0.5300
     11 O11       -14.1913   -1.6069   60.1847 O.2     1  ZINC000464867530   -0.5100
     12 C12       -13.0502   -1.4364   58.1259 C.3     1  ZINC000464867530   -0.1200
     13 H13       -13.4096   -1.3615   57.0995 H       1  ZINC000464867530    0.1000
     14 C14       -11.8795   -2.4202   58.1866 C.3     1  ZINC000464867530   -0.1200
     15 C15       -10.7602   -1.9417   57.2591 C.3     1  ZINC000464867530   -0.1300
     16 C16       -10.2643   -0.5705   57.7289 C.3     1  ZINC000464867530    0.1000
     17 N17       -11.4112    0.3440   57.8124 N.am    1  ZINC000464867530   -0.6100
     18 C18       -11.3913    1.5305   57.1733 C.2     1  ZINC000464867530    0.5500
     19 O19       -12.3437    2.2773   57.2512 O.2     1  ZINC000464867530   -0.5300
     20 C20       -10.1855    1.9292   56.3621 C.3     1  ZINC000464867530   -0.1700
     21 H21        -9.2228    1.8042   56.8579 H       1  ZINC000464867530    0.1300
     22 C22       -10.3385    3.1124   55.4022 C.3     1  ZINC000464867530   -0.1300
     23 C23       -10.2389    1.6911   54.8577 C.3     1  ZINC000464867530   -0.0600
     24 C24       -11.4482    1.0019   54.2040 C.3     1  ZINC000464867530   -0.0900
     25 C25       -10.8112   -0.2662   53.5937 C.3     1  ZINC000464867530   -0.0800
     26 C26        -9.3594    0.0926   53.3568 C.ar    1  ZINC000464867530   -0.0900
     27 C27        -8.4023   -0.5189   52.5655 C.ar    1  ZINC000464867530   -0.1100
     28 C28        -7.1202   -0.0081   52.5035 C.ar    1  ZINC000464867530   -0.1100
     29 C29        -6.7908    1.1178   53.2342 C.ar    1  ZINC000464867530   -0.1200
     30 C30        -7.7441    1.7301   54.0245 C.ar    1  ZINC000464867530   -0.1000
     31 C31        -9.0299    1.2207   54.0883 C.ar    1  ZINC000464867530   -0.0700
     32 C32       -12.5808   -0.0591   58.6051 C.3     1  ZINC000464867530    0.1300
     33 H33       -17.1580   -1.3087   61.1046 H       1  ZINC000464867530    0.0600
     34 H34       -16.3646   -0.4938   59.7354 H       1  ZINC000464867530    0.0600
     35 H35       -18.1295   -0.3814   59.9365 H       1  ZINC000464867530    0.0600
     36 H36       -18.3315   -2.8184   59.5260 H       1  ZINC000464867530    0.0700
     37 H37       -17.5381   -2.0036   58.1568 H       1  ZINC000464867530    0.0700
     38 H38       -15.8874   -3.1695   60.4127 H       1  ZINC000464867530    0.0900
     39 H39       -16.4792   -4.2123   59.0973 H       1  ZINC000464867530    0.0900
     40 H40       -14.0704   -3.2967   56.7961 H       1  ZINC000464867530    0.1300
     41 H41       -15.6980   -4.0005   56.9507 H       1  ZINC000464867530    0.1200
     42 H42       -11.5050   -2.4764   59.2087 H       1  ZINC000464867530    0.0800
     43 H43       -12.2174   -3.4067   57.8691 H       1  ZINC000464867530    0.0800
     44 H44        -9.9364   -2.6550   57.2850 H       1  ZINC000464867530    0.0900
     45 H45       -11.1407   -1.8616   56.2408 H       1  ZINC000464867530    0.0700
     46 H46        -9.8011   -0.6663   58.7110 H       1  ZINC000464867530    0.0700
     47 H47        -9.5374   -0.1809   57.0163 H       1  ZINC000464867530    0.0900
     48 H48       -11.3112    3.6021   55.3576 H       1  ZINC000464867530    0.1100
     49 H49        -9.4762    3.7651   55.2660 H       1  ZINC000464867530    0.1100
     50 H50       -12.1961    0.7389   54.9521 H       1  ZINC000464867530    0.0700
     51 H51       -11.8804    1.6318   53.4264 H       1  ZINC000464867530    0.0800
     52 H52       -10.8855   -1.1000   54.2918 H       1  ZINC000464867530    0.0800
     53 H53       -11.2973   -0.5171   52.6509 H       1  ZINC000464867530    0.0800
     54 H54        -8.6588   -1.3990   51.9945 H       1  ZINC000464867530    0.1200
     55 H55        -6.3762   -0.4882   51.8851 H       1  ZINC000464867530    0.1300
     56 H56        -5.7890    1.5184   53.1876 H       1  ZINC000464867530    0.1300
     57 H57        -7.4850    2.6096   54.5953 H       1  ZINC000464867530    0.1200
     58 H58       -13.3817    0.6679   58.4705 H       1  ZINC000464867530    0.1000
     59 H59       -12.3071   -0.1134   59.6588 H       1  ZINC000464867530    0.0800
@<TRIPOS>BOND
     1     1     2    1
     2     1    33    1
     3     1    34    1
     4     1    35    1
     5     2     3    1
     6     2    36    1
     7     2    37    1
     8     3     4    1
     9     3    38    1
    10     3    39    1
    11     4     5    1
    12     4    10   am
    13     5     6    1
    14     5    40    1
    15     5    41    1
    16     6     7    1
    17     6     8    1
    18     6     9    1
    19    10    11    2
    20    10    12    1
    21    12    13    1
    22    12    32    1
    23    12    14    1
    24    14    15    1
    25    14    42    1
    26    14    43    1
    27    15    16    1
    28    15    44    1
    29    15    45    1
    30    16    17    1
    31    16    46    1
    32    16    47    1
    33    17    18   am
    34    17    32    1
    35    18    19    2
    36    18    20    1
    37    20    21    1
    38    20    23    1
    39    20    22    1
    40    22    23    1
    41    22    48    1
    42    22    49    1
    43    23    31    1
    44    23    24    1
    45    24    25    1
    46    24    50    1
    47    24    51    1
    48    25    26    1
    49    25    52    1
    50    25    53    1
    51    26    31   ar
    52    26    27   ar
    53    27    28   ar
    54    27    54    1
    55    28    29   ar
    56    28    55    1
    57    29    30   ar
    58    29    56    1
    59    30    31   ar
    60    30    57    1
    61    32    58    1
    62    32    59    1
@<TRIPOS>SUBSTRUCTURE
     1 ZINC000464867530        1 TEMP              0 ****  ****    0 ROOT


##########                                Name:    ZINC001085711660
##########                DOCK_Rotatable_Bonds:                   8
##########                         Heavy_Atoms:                  25
##########                    Molecular_Weight:             347.414
##########                DOCK_Rotatable_Bonds:                   8
##########                       Formal_Charge:         -0.00999993
##########                     HBond_Acceptors:                   7
##########                        HBond_Donors:                   0
##########                         Heavy_Atoms:                  25
##########                          Grid_Score:          -29.722002
##########                     Grid_vdw_energy:          -30.913351
##########                      Grid_es_energy:            1.191350
##########           Internal_energy_repulsive:           18.852686

@<TRIPOS>MOLECULE
ZINC001085711660
 50 52 1 0 0
SMALL
USER_CHARGES


@<TRIPOS>ATOM
      1 C1          2.3782    1.8062   47.7683 C.3     1  ZINC001085711660    0.0300
      2 O2          2.5967    0.6418   48.5674 O.3     1  ZINC001085711660   -0.3800
      3 C3          3.0381    0.9238   49.8970 C.3     1  ZINC001085711660    0.1400
      4 C4          2.0364    1.8192   50.5795 C.2     1  ZINC001085711660    0.0100
      5 C5          2.2516    3.1002   50.9522 C.2     1  ZINC001085711660   -0.1900
      6 C6          1.0674    3.5615   51.5482 C.2     1  ZINC001085711660   -0.1200
      7 C7          0.1786    2.5257   51.5084 C.2     1  ZINC001085711660   -0.0700
      8 C8         -1.1957    2.5495   52.0197 C.2     1  ZINC001085711660    0.6000
      9 O9         -1.4182    2.9455   53.1488 O.2     1  ZINC001085711660   -0.5200
     10 N10        -2.2123    2.1326   51.2392 N.am    1  ZINC001085711660   -0.6000
     11 C11        -1.9446    1.6558   49.8801 C.3     1  ZINC001085711660    0.0700
     12 C12        -3.5853    2.1563   51.7500 C.3     1  ZINC001085711660    0.1300
     13 C13        -4.3057    3.3971   51.2185 C.3     1  ZINC001085711660    0.0000
     14 H14        -4.4561    3.3671   50.1394 H       1  ZINC001085711660    0.1000
     15 C15        -3.6981    4.7166   51.7149 C.3     1  ZINC001085711660   -0.1400
     16 C16        -5.1656    5.1573   51.8086 C.3     1  ZINC001085711660    0.0100
     17 N17        -5.5270    3.7357   51.9728 N.3     1  ZINC001085711660   -0.4500
     18 C18        -6.7326    3.4064   51.2009 C.3     1  ZINC001085711660    0.1500
     19 H19        -6.4905    3.3899   50.1382 H       1  ZINC001085711660    0.1000
     20 C20        -7.8096    4.4613   51.4623 C.3     1  ZINC001085711660   -0.1900
     21 C21        -7.2435    2.0522   51.6206 C.2     1  ZINC001085711660    0.2000
     22 N22        -6.6304    0.9184   51.4326 N.2     1  ZINC001085711660   -0.4700
     23 C23        -7.3879   -0.0706   51.9392 C.2     1  ZINC001085711660   -0.0400
     24 C24        -8.4976    0.4871   52.4511 C.2     1  ZINC001085711660   -0.0500
     25 C25        -9.6345   -0.2371   53.1248 C.3     1  ZINC001085711660   -0.0700
     26 O26        -8.4004    1.8166   52.2537 O.3     1  ZINC001085711660   -0.2000
     27 O27         0.7845    1.4784   50.9117 O.3     1  ZINC001085711660   -0.1500
     28 H28         1.6153    2.4292   48.2350 H       1  ZINC001085711660    0.0500
     29 H29         3.3075    2.3699   47.6859 H       1  ZINC001085711660    0.0500
     30 H30         2.0452    1.5074   46.7743 H       1  ZINC001085711660    0.0900
     31 H31         3.1313   -0.0082   50.4543 H       1  ZINC001085711660    0.0900
     32 H32         4.0061    1.4234   49.8601 H       1  ZINC001085711660    0.0700
     33 H33         3.1634    3.6631   50.8169 H       1  ZINC001085711660    0.1600
     34 H34         0.8932    4.5452   51.9586 H       1  ZINC001085711660    0.1600
     35 H35        -1.6543    0.6058   49.9141 H       1  ZINC001085711660    0.0600
     36 H36        -2.8433    1.7648   49.2732 H       1  ZINC001085711660    0.0900
     37 H37        -1.1369    2.2421   49.4420 H       1  ZINC001085711660    0.0800
     38 H38        -4.1115    1.2610   51.4192 H       1  ZINC001085711660    0.0900
     39 H39        -3.5671    2.1855   52.8395 H       1  ZINC001085711660    0.0900
     40 H40        -3.1925    4.6409   52.6775 H       1  ZINC001085711660    0.1000
     41 H41        -3.1185    5.2519   50.9628 H       1  ZINC001085711660    0.0800
     42 H42        -5.3812    5.7650   52.6874 H       1  ZINC001085711660    0.0900
     43 H43        -5.5465    5.5974   50.8871 H       1  ZINC001085711660    0.0800
     44 H44        -7.9736    4.5547   52.5358 H       1  ZINC001085711660    0.0800
     45 H45        -7.4841    5.4203   51.0596 H       1  ZINC001085711660    0.0800
     46 H46        -8.7383    4.1601   50.9778 H       1  ZINC001085711660    0.0700
     47 H47        -7.1475   -1.1235   51.9350 H       1  ZINC001085711660    0.1800
     48 H48        -9.4374   -0.3076   54.1944 H       1  ZINC001085711660    0.0800
     49 H49       -10.5622    0.3114   52.9616 H       1  ZINC001085711660    0.0800
     50 H50        -9.7263   -1.2390   52.7055 H       1  ZINC001085711660    0.0900
@<TRIPOS>BOND
     1     1     2    1
     2     1    28    1
     3     1    29    1
     4     1    30    1
     5     2     3    1
     6     3     4    1
     7     3    31    1
     8     3    32    1
     9     4    27    1
    10     4     5    2
    11     5     6    1
    12     5    33    1
    13     6     7    2
    14     6    34    1
    15     7     8    1
    16     7    27    1
    17     8     9    2
    18     8    10   am
    19    10    11    1
    20    10    12    1
    21    11    35    1
    22    11    36    1
    23    11    37    1
    24    12    13    1
    25    12    38    1
    26    12    39    1
    27    13    14    1
    28    13    17    1
    29    13    15    1
    30    15    16    1
    31    15    40    1
    32    15    41    1
    33    16    17    1
    34    16    42    1
    35    16    43    1
    36    17    18    1
    37    18    19    1
    38    18    20    1
    39    18    21    1
    40    20    44    1
    41    20    45    1
    42    20    46    1
    43    21    26    1
    44    21    22    2
    45    22    23    1
    46    23    24    2
    47    23    47    1
    48    24    25    1
    49    24    26    1
    50    25    48    1
    51    25    49    1
    52    25    50    1
@<TRIPOS>SUBSTRUCTURE
     1 ZINC001085711660        1 TEMP              0 ****  ****    0 ROOT


##########                                Name:    ZINC000151850193
##########                DOCK_Rotatable_Bonds:                  11
##########                         Heavy_Atoms:                  23
##########                    Molecular_Weight:             328.452
##########                DOCK_Rotatable_Bonds:                  11
##########                       Formal_Charge:            0.039999
##########                     HBond_Acceptors:                   6
##########                        HBond_Donors:                   2
##########                         Heavy_Atoms:                  23
##########                          Grid_Score:          -29.712629
##########                     Grid_vdw_energy:          -29.132391
##########                      Grid_es_energy:           -0.580238
##########           Internal_energy_repulsive:           47.790592

@<TRIPOS>MOLECULE
ZINC000151850193
 55 55 1 0 0
SMALL
USER_CHARGES


@<TRIPOS>ATOM
      1 C1         -3.5901    3.8291   51.2415 C.3     1  ZINC000151850193   -0.1500
      2 C2         -4.5113    3.4386   52.3991 C.3     1  ZINC000151850193   -0.1000
      3 C3         -5.8375    2.9171   51.8419 C.3     1  ZINC000151850193   -0.0800
      4 C4         -5.6549    1.7547   50.8640 C.3     1  ZINC000151850193   -0.1000
      5 C5         -4.9718    0.5881   51.5803 C.3     1  ZINC000151850193   -0.1500
      6 C6         -6.8989    2.6541   52.9231 C.3     1  ZINC000151850193    0.1400
      7 H7         -6.4779    2.4446   53.9066 H       1  ZINC000151850193    0.1000
      8 N8         -7.9173    1.6807   52.5212 N.am    1  ZINC000151850193   -0.7000
      9 C9         -8.7905    1.2045   53.4307 C.2     1  ZINC000151850193    0.5200
     10 O10        -8.7321    1.5806   54.5822 O.2     1  ZINC000151850193   -0.5300
     11 C11        -9.8393    0.2045   53.0168 C.3     1  ZINC000151850193   -0.1500
     12 C12       -11.0729    0.9450   52.4966 C.3     1  ZINC000151850193    0.1500
     13 N13       -12.0558   -0.0258   52.0092 N.am    1  ZINC000151850193   -0.7100
     14 C14       -12.9888    0.3519   51.1129 C.2     1  ZINC000151850193    0.6500
     15 O15       -13.0157    1.4980   50.7102 O.2     1  ZINC000151850193   -0.5600
     16 O16       -13.8912   -0.5408   50.6638 O.3     1  ZINC000151850193   -0.3700
     17 C17       -14.6816   -0.1548   49.5087 C.3     1  ZINC000151850193    0.1400
     18 C18       -15.5866    1.0217   49.8800 C.3     1  ZINC000151850193   -0.1800
     19 C19       -13.7496    0.2591   48.3681 C.3     1  ZINC000151850193   -0.1400
     20 C20       -15.5416   -1.3382   49.0606 C.3     1  ZINC000151850193   -0.1800
     21 C21        -7.3356    4.1170   52.7390 C.3     1  ZINC000151850193   -0.1700
     22 C22        -6.7629    4.0264   51.3147 C.3     1  ZINC000151850193    0.0700
     23 H23        -6.2320    4.9248   50.9995 H       1  ZINC000151850193    0.0800
     24 O24        -7.7091    3.5720   50.3450 O.3     1  ZINC000151850193   -0.3700
     25 C25        -8.4141    4.6243   49.6834 C.3     1  ZINC000151850193    0.0300
     26 H26        -3.3771    2.9495   50.6340 H       1  ZINC000151850193    0.0600
     27 H27        -4.0792    4.5852   50.6272 H       1  ZINC000151850193    0.0600
     28 H28        -2.6580    4.2309   51.6386 H       1  ZINC000151850193    0.0600
     29 H29        -4.0359    2.6593   52.9948 H       1  ZINC000151850193    0.0700
     30 H30        -4.6983    4.3112   53.0249 H       1  ZINC000151850193    0.0700
     31 H31        -6.6291    1.4341   50.4948 H       1  ZINC000151850193    0.0700
     32 H32        -5.0374    2.0784   50.0262 H       1  ZINC000151850193    0.0700
     33 H33        -3.9688    0.8864   51.8856 H       1  ZINC000151850193    0.0500
     34 H34        -5.5524    0.3121   52.4606 H       1  ZINC000151850193    0.0500
     35 H35        -4.9073   -0.2653   50.9053 H       1  ZINC000151850193    0.0500
     36 H36        -7.9633    1.3791   51.6004 H       1  ZINC000151850193    0.4100
     37 H37        -9.4406   -0.4351   52.2294 H       1  ZINC000151850193    0.1000
     38 H38       -10.1176   -0.4066   53.8754 H       1  ZINC000151850193    0.1000
     39 H39       -11.5113    1.5322   53.3034 H       1  ZINC000151850193    0.0800
     40 H40       -10.7820    1.6078   51.6815 H       1  ZINC000151850193    0.0800
     41 H41       -12.0351   -0.9405   52.3316 H       1  ZINC000151850193    0.4100
     42 H42       -14.9739    1.8648   50.1993 H       1  ZINC000151850193    0.0600
     43 H43       -16.1800    1.3114   49.0129 H       1  ZINC000151850193    0.0700
     44 H44       -16.2507    0.7268   50.6926 H       1  ZINC000151850193    0.0900
     45 H45       -13.1048   -0.5789   48.1035 H       1  ZINC000151850193    0.0700
     46 H46       -14.3429    0.5489   47.5009 H       1  ZINC000151850193    0.0800
     47 H47       -13.1368    1.1022   48.6873 H       1  ZINC000151850193    0.0700
     48 H48       -16.2056   -1.6330   49.8731 H       1  ZINC000151850193    0.0900
     49 H49       -16.1350   -1.0484   48.1934 H       1  ZINC000151850193    0.0700
     50 H50       -14.8968   -2.1763   48.7960 H       1  ZINC000151850193    0.0600
     51 H51        -8.4162    4.2569   52.7669 H       1  ZINC000151850193    0.0800
     52 H52        -6.8004    4.8166   53.3811 H       1  ZINC000151850193    0.1000
     53 H53        -8.9640    5.2116   50.4187 H       1  ZINC000151850193    0.0400
     54 H54        -7.7036    5.2666   49.1631 H       1  ZINC000151850193    0.0400
     55 H55        -9.1126    4.1972   48.9637 H       1  ZINC000151850193    0.0900
@<TRIPOS>BOND
     1     1     2    1
     2     1    26    1
     3     1    27    1
     4     1    28    1
     5     2     3    1
     6     2    29    1
     7     2    30    1
     8     3    22    1
     9     3     4    1
    10     3     6    1
    11     4     5    1
    12     4    31    1
    13     4    32    1
    14     5    33    1
    15     5    34    1
    16     5    35    1
    17     6     7    1
    18     6     8    1
    19     6    21    1
    20     8     9   am
    21     8    36    1
    22     9    10    2
    23     9    11    1
    24    11    12    1
    25    11    37    1
    26    11    38    1
    27    12    13    1
    28    12    39    1
    29    12    40    1
    30    13    14   am
    31    13    41    1
    32    14    15    2
    33    14    16    1
    34    16    17    1
    35    17    18    1
    36    17    19    1
    37    17    20    1
    38    18    42    1
    39    18    43    1
    40    18    44    1
    41    19    45    1
    42    19    46    1
    43    19    47    1
    44    20    48    1
    45    20    49    1
    46    20    50    1
    47    21    22    1
    48    21    51    1
    49    21    52    1
    50    22    23    1
    51    22    24    1
    52    24    25    1
    53    25    53    1
    54    25    54    1
    55    25    55    1
@<TRIPOS>SUBSTRUCTURE
     1 ZINC000151850193        1 TEMP              0 ****  ****    0 ROOT


##########                                Name:    ZINC000077537368
##########                DOCK_Rotatable_Bonds:                   5
##########                         Heavy_Atoms:                  27
##########                    Molecular_Weight:             365.478
##########                DOCK_Rotatable_Bonds:                   5
##########                       Formal_Charge:          -0.0400007
##########                     HBond_Acceptors:                   6
##########                        HBond_Donors:                   0
##########                         Heavy_Atoms:                  27
##########                          Grid_Score:          -29.701185
##########                     Grid_vdw_energy:          -29.555502
##########                      Grid_es_energy:           -0.145684
##########           Internal_energy_repulsive:           11.227941

@<TRIPOS>MOLECULE
ZINC000077537368
 54 56 1 0 0
SMALL
USER_CHARGES


@<TRIPOS>ATOM
      1 C1        -11.6652    1.3288   52.0886 C.3     1  ZINC000077537368    0.0800
      2 N2        -11.3110    1.2125   53.5054 N.pl3   1  ZINC000077537368   -0.2600
      3 N3        -12.0112    1.6645   54.4829 N.2     1  ZINC000077537368   -0.2700
      4 C4        -11.4345    1.4070   55.6290 C.2     1  ZINC000077537368    0.0400
      5 C5        -11.9598    1.7826   56.9907 C.3     1  ZINC000077537368    0.0200
      6 C6        -12.7612    3.0818   56.8877 C.3     1  ZINC000077537368   -0.1400
      7 C7        -12.8646    0.6654   57.5142 C.3     1  ZINC000077537368   -0.1400
      8 C8        -10.7868    1.9817   57.9527 C.3     1  ZINC000077537368   -0.1400
      9 C9        -10.2461    0.7219   55.3664 C.2     1  ZINC000077537368   -0.2000
     10 C10       -10.1888    0.6018   53.9887 C.2     1  ZINC000077537368   -0.0400
     11 C11        -9.1273   -0.0459   53.2018 C.2     1  ZINC000077537368    0.5900
     12 O12        -9.3382   -1.1137   52.6590 O.2     1  ZINC000077537368   -0.5400
     13 N13        -7.9214    0.5441   53.0828 N.am    1  ZINC000077537368   -0.6000
     14 C14        -6.8485   -0.0830   52.2962 C.3     1  ZINC000077537368    0.0800
     15 C15        -6.2997    0.9526   51.3090 C.3     1  ZINC000077537368    0.0400
     16 N16        -5.9060    2.1631   52.0425 N.3     1  ZINC000077537368   -0.5300
     17 C17        -5.2172    3.1132   51.1590 C.3     1  ZINC000077537368    0.0900
     18 C18        -3.7405    2.8128   51.1519 C.ar    1  ZINC000077537368   -0.0500
     19 C19        -2.9632    3.1536   52.2448 C.ar    1  ZINC000077537368   -0.1200
     20 C20        -1.6107    2.8818   52.2448 C.ar    1  ZINC000077537368   -0.0700
     21 C21        -1.0266    2.2610   51.1389 C.ar    1  ZINC000077537368   -0.0300
     22 C22         0.3766    1.9754   51.1323 C.1     1  ZINC000077537368    0.2500
     23 N23         1.4898    1.7489   51.1270 N.1     1  ZINC000077537368   -0.4100
     24 C24        -1.8170    1.9194   50.0397 C.ar    1  ZINC000077537368   -0.0700
     25 C25        -3.1692    2.1922   50.0552 C.ar    1  ZINC000077537368   -0.1000
     26 C26        -7.0634    2.7924   52.6924 C.3     1  ZINC000077537368    0.0400
     27 C27        -7.6454    1.8351   53.7312 C.3     1  ZINC000077537368    0.1200
     28 H28       -12.1733    0.4202   51.7654 H       1  ZINC000077537368    0.0800
     29 H29       -12.3262    2.1841   51.9483 H       1  ZINC000077537368    0.1000
     30 H30       -10.7599    1.4685   51.4980 H       1  ZINC000077537368    0.1100
     31 H31       -13.5967    2.9399   56.2023 H       1  ZINC000077537368    0.0600
     32 H32       -13.1411    3.3534   57.8726 H       1  ZINC000077537368    0.0600
     33 H33       -12.1165    3.8777   56.5148 H       1  ZINC000077537368    0.0600
     34 H34       -12.2937   -0.2603   57.5875 H       1  ZINC000077537368    0.0600
     35 H35       -13.2446    0.9369   58.4991 H       1  ZINC000077537368    0.0600
     36 H36       -13.7002    0.5234   56.8288 H       1  ZINC000077537368    0.0600
     37 H37       -10.1422    2.7776   57.5798 H       1  ZINC000077537368    0.0600
     38 H38       -11.1668    2.2533   58.9376 H       1  ZINC000077537368    0.0600
     39 H39       -10.2159    1.0561   58.0261 H       1  ZINC000077537368    0.0600
     40 H40        -9.5265    0.3594   56.0856 H       1  ZINC000077537368    0.1700
     41 H41        -6.0509   -0.4126   52.9621 H       1  ZINC000077537368    0.0800
     42 H42        -7.2474   -0.9362   51.7476 H       1  ZINC000077537368    0.1200
     43 H43        -5.4315    0.5405   50.7947 H       1  ZINC000077537368    0.0900
     44 H44        -7.0698    1.2037   50.5796 H       1  ZINC000077537368    0.0400
     45 H45        -5.6116    3.0201   50.1472 H       1  ZINC000077537368    0.0900
     46 H46        -5.3796    4.1287   51.5203 H       1  ZINC000077537368    0.0500
     47 H47        -3.4163    3.6338   53.0995 H       1  ZINC000077537368    0.1300
     48 H48        -1.0050    3.1491   53.0981 H       1  ZINC000077537368    0.1300
     49 H49        -1.3716    1.4389   49.1812 H       1  ZINC000077537368    0.1300
     50 H50        -3.7818    1.9282   49.2058 H       1  ZINC000077537368    0.1400
     51 H51        -6.7490    3.7144   53.1813 H       1  ZINC000077537368    0.1000
     52 H52        -7.8228    3.0178   51.9438 H       1  ZINC000077537368    0.0400
     53 H53        -8.5697    2.2495   54.1337 H       1  ZINC000077537368    0.1000
     54 H54        -6.9259    1.6872   54.5365 H       1  ZINC000077537368    0.0800
@<TRIPOS>BOND
     1     1     2    1
     2     1    28    1
     3     1    29    1
     4     1    30    1
     5     2    10    1
     6     2     3    1
     7     3     4    2
     8     4     5    1
     9     4     9    1
    10     5     6    1
    11     5     7    1
    12     5     8    1
    13     6    31    1
    14     6    32    1
    15     6    33    1
    16     7    34    1
    17     7    35    1
    18     7    36    1
    19     8    37    1
    20     8    38    1
    21     8    39    1
    22     9    10    2
    23     9    40    1
    24    10    11    1
    25    11    12    2
    26    11    13   am
    27    13    27    1
    28    13    14    1
    29    14    15    1
    30    14    41    1
    31    14    42    1
    32    15    16    1
    33    15    43    1
    34    15    44    1
    35    16    17    1
    36    16    26    1
    37    17    18    1
    38    17    45    1
    39    17    46    1
    40    18    25   ar
    41    18    19   ar
    42    19    20   ar
    43    19    47    1
    44    20    21   ar
    45    20    48    1
    46    21    22    1
    47    21    24   ar
    48    22    23    3
    49    24    25   ar
    50    24    49    1
    51    25    50    1
    52    26    27    1
    53    26    51    1
    54    26    52    1
    55    27    53    1
    56    27    54    1
@<TRIPOS>SUBSTRUCTURE
     1 ZINC000077537368        1 TEMP              0 ****  ****    0 ROOT


##########                                Name:    ZINC000899027326
##########                DOCK_Rotatable_Bonds:                   5
##########                         Heavy_Atoms:                  22
##########                    Molecular_Weight:             346.169
##########                DOCK_Rotatable_Bonds:                   5
##########                       Formal_Charge:           0.0300005
##########                     HBond_Acceptors:                   9
##########                        HBond_Donors:                   1
##########                         Heavy_Atoms:                  22
##########                          Grid_Score:          -29.677654
##########                     Grid_vdw_energy:          -28.682817
##########                      Grid_es_energy:           -0.994836
##########           Internal_energy_repulsive:            6.489928

@<TRIPOS>MOLECULE
ZINC000899027326
 35 36 1 0 0
SMALL
USER_CHARGES


@<TRIPOS>ATOM
      1 C1         -9.3067    2.2198   54.5687 C.3     1  ZINC000899027326   -0.1500
      2 C2         -8.8640    1.9672   53.1260 C.3     1  ZINC000899027326    0.1100
      3 H3         -9.5665    2.4191   52.4258 H       1  ZINC000899027326    0.1400
      4 C4         -7.4641    2.5014   52.8965 C.2     1  ZINC000899027326    0.5300
      5 O5         -7.0942    3.6517   52.9939 O.2     1  ZINC000899027326   -0.4500
      6 N6         -6.7161    1.4313   52.5622 N.am    1  ZINC000899027326   -0.3700
      7 N7         -5.3479    1.4889   52.2662 N.am    1  ZINC000899027326   -0.5000
      8 C8         -4.9411    1.7347   51.0050 C.2     1  ZINC000899027326    0.5200
      9 O9         -5.7594    1.9073   50.1267 O.2     1  ZINC000899027326   -0.4800
     10 C10        -3.4695    1.7950   50.6863 C.3     1  ZINC000899027326    0.0500
     11 O11        -2.7803    2.4661   51.7430 O.3     1  ZINC000899027326   -0.2700
     12 C12        -1.4525    2.6968   51.5651 C.ar    1  ZINC000899027326    0.1400
     13 C13        -0.8028    2.1890   50.4504 C.ar    1  ZINC000899027326   -0.1900
     14 C14         0.5471    2.4245   50.2711 C.ar    1  ZINC000899027326   -0.0600
     15 C15         1.2508    3.1664   51.2028 C.ar    1  ZINC000899027326   -0.0600
     16 Cl16        2.9463    3.4611   50.9744 Cl      1  ZINC000899027326   -0.0500
     17 C17         0.6050    3.6746   52.3163 C.ar    1  ZINC000899027326   -0.0600
     18 C18        -0.7461    3.4462   52.4964 C.ar    1  ZINC000899027326   -0.0500
     19 Cl19       -1.5564    4.0837   53.8933 Cl      1  ZINC000899027326   -0.0300
     20 C20        -7.4413    0.3070   52.5489 C.2     1  ZINC000899027326    0.7000
     21 O21        -6.9869   -0.7868   52.2765 O.2     1  ZINC000899027326   -0.5200
     22 N22        -8.7334    0.5225   52.8694 N.am    1  ZINC000899027326   -0.6200
     23 C23        -9.7949   -0.4840   52.9498 C.3     1  ZINC000899027326    0.1200
     24 H24        -8.5865    1.7719   55.2534 H       1  ZINC000899027326    0.0700
     25 H25        -9.3608    3.2933   54.7493 H       1  ZINC000899027326    0.0900
     26 H26       -10.2881    1.7741   54.7309 H       1  ZINC000899027326    0.0900
     27 H27        -4.6935    1.3521   52.9689 H       1  ZINC000899027326    0.4300
     28 H28        -3.0784    0.7829   50.5826 H       1  ZINC000899027326    0.1100
     29 H29        -3.3218    2.3389   49.7532 H       1  ZINC000899027326    0.1100
     30 H30        -1.3514    1.6094   49.7227 H       1  ZINC000899027326    0.1500
     31 H31         1.0532    2.0286   49.4032 H       1  ZINC000899027326    0.1500
     32 H32         1.1561    4.2536   53.0425 H       1  ZINC000899027326    0.1500
     33 H33        -9.3852   -1.4644   52.7067 H       1  ZINC000899027326    0.0900
     34 H34       -10.2034   -0.5013   53.9601 H       1  ZINC000899027326    0.0700
     35 H35       -10.5859   -0.2352   52.2422 H       1  ZINC000899027326    0.0700
@<TRIPOS>BOND
     1     1     2    1
     2     1    24    1
     3     1    25    1
     4     1    26    1
     5     2     3    1
     6     2    22    1
     7     2     4    1
     8     4     5    2
     9     4     6   am
    10     6     7    1
    11     6    20   am
    12     7     8   am
    13     7    27    1
    14     8     9    2
    15     8    10    1
    16    10    11    1
    17    10    28    1
    18    10    29    1
    19    11    12    1
    20    12    18   ar
    21    12    13   ar
    22    13    14   ar
    23    13    30    1
    24    14    15   ar
    25    14    31    1
    26    15    16    1
    27    15    17   ar
    28    17    18   ar
    29    17    32    1
    30    18    19    1
    31    20    21    2
    32    20    22   am
    33    22    23    1
    34    23    33    1
    35    23    34    1
    36    23    35    1
@<TRIPOS>SUBSTRUCTURE
     1 ZINC000899027326        1 TEMP              0 ****  ****    0 ROOT


##########                                Name:    ZINC000650955167
##########                DOCK_Rotatable_Bonds:                   9
##########                         Heavy_Atoms:                  26
##########                    Molecular_Weight:             361.484
##########                DOCK_Rotatable_Bonds:                   9
##########                       Formal_Charge:        -7.07805e-07
##########                     HBond_Acceptors:                   6
##########                        HBond_Donors:                   2
##########                         Heavy_Atoms:                  26
##########                          Grid_Score:          -29.623158
##########                     Grid_vdw_energy:          -29.601233
##########                      Grid_es_energy:           -0.021926
##########           Internal_energy_repulsive:           28.773432

@<TRIPOS>MOLECULE
ZINC000650955167
 57 59 1 0 0
SMALL
USER_CHARGES


@<TRIPOS>ATOM
      1 C1         -6.4465   -0.7644   51.4956 C.3     1  ZINC000650955167    0.0200
      2 O2         -6.7025   -0.2935   52.8203 O.3     1  ZINC000650955167   -0.3200
      3 C3         -7.8463    0.4146   53.0131 C.ar    1  ZINC000650955167    0.1300
      4 C4         -9.0793   -0.2006   52.8541 C.ar    1  ZINC000650955167   -0.2000
      5 C5        -10.2408    0.5214   53.0513 C.ar    1  ZINC000650955167   -0.0800
      6 C6        -10.1747    1.8558   53.4062 C.ar    1  ZINC000650955167   -0.1500
      7 C7         -8.9467    2.4716   53.5647 C.ar    1  ZINC000650955167   -0.0800
      8 C8         -7.7826    1.7526   53.3749 C.ar    1  ZINC000650955167   -0.1100
      9 C9         -6.4447    2.4240   53.5484 C.3     1  ZINC000650955167   -0.0800
     10 C10        -5.9945    3.0170   52.2118 C.3     1  ZINC000650955167    0.1800
     11 H11        -6.2580    2.3341   51.4042 H       1  ZINC000650955167    0.0900
     12 N12        -4.5430    3.2152   52.2298 N.am    1  ZINC000650955167   -0.7300
     13 C13        -3.7674    2.5993   51.3156 C.2     1  ZINC000650955167    0.7400
     14 O14        -4.2726    1.8805   50.4750 O.2     1  ZINC000650955167   -0.5800
     15 N15        -2.4320    2.7804   51.3331 N.am    1  ZINC000650955167   -0.6700
     16 C16        -1.2892    2.3115   50.5351 C.3     1  ZINC000650955167    0.1100
     17 C17        -0.4130    2.4936   51.7822 C.3     1  ZINC000650955167    0.0300
     18 N18         0.9143    3.0604   51.5082 N.3     1  ZINC000650955167   -0.5100
     19 C19         0.8015    4.3899   50.8713 C.3     1  ZINC000650955167    0.0400
     20 C20         2.0133    4.4720   49.9098 C.3     1  ZINC000650955167   -0.1600
     21 C21         2.0975    3.0140   49.3866 C.3     1  ZINC000650955167    0.0800
     22 H22         1.3960    2.8575   48.5672 H       1  ZINC000650955167    0.0600
     23 O23         3.4299    2.7009   48.9755 O.3     1  ZINC000650955167   -0.5600
     24 C24         1.6923    2.1784   50.6190 C.3     1  ZINC000650955167    0.0500
     25 C25        -1.4770    3.5392   52.1548 C.3     1  ZINC000650955167    0.1400
     26 C26        -6.6901    4.3616   51.9902 C.3     1  ZINC000650955167   -0.1100
     27 C27        -5.6420    5.4338   51.6854 C.3     1  ZINC000650955167   -0.1400
     28 C28        -7.6594    4.2463   50.8121 C.3     1  ZINC000650955167   -0.1500
     29 H29        -5.5044   -1.3125   51.4805 H       1  ZINC000650955167    0.1000
     30 H30        -7.2556   -1.4239   51.1816 H       1  ZINC000650955167    0.0600
     31 H31        -6.3841    0.0841   50.8141 H       1  ZINC000650955167    0.0600
     32 H32        -9.1315   -1.2429   52.5763 H       1  ZINC000650955167    0.1300
     33 H33       -11.2011    0.0429   52.9277 H       1  ZINC000650955167    0.1200
     34 H34       -11.0836    2.4186   53.5594 H       1  ZINC000650955167    0.1200
     35 H35        -8.8977    3.5143   53.8417 H       1  ZINC000650955167    0.1300
     36 H36        -6.5308    3.2198   54.2883 H       1  ZINC000650955167    0.0900
     37 H37        -5.7116    1.6915   53.8863 H       1  ZINC000650955167    0.0800
     38 H38        -4.1402    3.7897   52.8996 H       1  ZINC000650955167    0.4000
     39 H39        -1.3795    1.2732   50.2159 H       1  ZINC000650955167    0.0700
     40 H40        -1.0259    2.9828   49.7178 H       1  ZINC000650955167    0.0900
     41 H41        -0.3830    1.6238   52.4383 H       1  ZINC000650955167    0.0900
     42 H42        -0.1317    4.4652   50.3130 H       1  ZINC000650955167    0.0500
     43 H43         0.8595    5.1770   51.6231 H       1  ZINC000650955167    0.0900
     44 H44         1.8184    5.1688   49.0946 H       1  ZINC000650955167    0.0800
     45 H45         2.9206    4.7468   50.4479 H       1  ZINC000650955167    0.0900
     46 H46         3.7659    3.2663   48.2667 H       1  ZINC000650955167    0.3800
     47 H47         2.5838    1.8236   51.1361 H       1  ZINC000650955167    0.0900
     48 H48         1.0798    1.3319   50.3081 H       1  ZINC000650955167    0.0700
     49 H49        -1.2614    4.5350   51.7677 H       1  ZINC000650955167    0.0900
     50 H50        -1.7280    3.5440   53.2155 H       1  ZINC000650955167    0.0800
     51 H51        -7.2417    4.6377   52.8888 H       1  ZINC000650955167    0.0700
     52 H52        -5.0904    5.1577   50.7867 H       1  ZINC000650955167    0.0600
     53 H53        -6.1376    6.3917   51.5274 H       1  ZINC000650955167    0.0400
     54 H54        -4.9515    5.5159   52.5247 H       1  ZINC000650955167    0.0500
     55 H55        -8.4060    3.4824   51.0292 H       1  ZINC000650955167    0.0600
     56 H56        -8.1549    5.2042   50.6542 H       1  ZINC000650955167    0.0600
     57 H57        -7.1077    3.9700   49.9134 H       1  ZINC000650955167    0.0600
@<TRIPOS>BOND
     1     1     2    1
     2     1    29    1
     3     1    30    1
     4     1    31    1
     5     2     3    1
     6     3     8   ar
     7     3     4   ar
     8     4     5   ar
     9     4    32    1
    10     5     6   ar
    11     5    33    1
    12     6     7   ar
    13     6    34    1
    14     7     8   ar
    15     7    35    1
    16     8     9    1
    17     9    10    1
    18     9    36    1
    19     9    37    1
    20    10    11    1
    21    10    12    1
    22    10    26    1
    23    12    13   am
    24    12    38    1
    25    13    14    2
    26    13    15   am
    27    15    25    1
    28    15    16    1
    29    16    17    1
    30    16    39    1
    31    16    40    1
    32    17    18    1
    33    17    25    1
    34    17    41    1
    35    18    24    1
    36    18    19    1
    37    19    20    1
    38    19    42    1
    39    19    43    1
    40    20    21    1
    41    20    44    1
    42    20    45    1
    43    21    22    1
    44    21    23    1
    45    21    24    1
    46    23    46    1
    47    24    47    1
    48    24    48    1
    49    25    49    1
    50    25    50    1
    51    26    27    1
    52    26    28    1
    53    26    51    1
    54    27    52    1
    55    27    53    1
    56    27    54    1
    57    28    55    1
    58    28    56    1
    59    28    57    1
@<TRIPOS>SUBSTRUCTURE
     1 ZINC000650955167        1 TEMP              0 ****  ****    0 ROOT


##########                                Name:    ZINC000269287897
##########                DOCK_Rotatable_Bonds:                   8
##########                         Heavy_Atoms:                  23
##########                    Molecular_Weight:             385.301
##########                DOCK_Rotatable_Bonds:                   8
##########                       Formal_Charge:           0.0300002
##########                     HBond_Acceptors:                   5
##########                        HBond_Donors:                   1
##########                         Heavy_Atoms:                  23
##########                          Grid_Score:          -29.587559
##########                     Grid_vdw_energy:          -28.589275
##########                      Grid_es_energy:           -0.998284
##########           Internal_energy_repulsive:            9.359870

@<TRIPOS>MOLECULE
ZINC000269287897
 48 49 1 0 0
SMALL
USER_CHARGES


@<TRIPOS>ATOM
      1 C1         -0.3734    3.8417   52.2594 C.3     1  ZINC000269287897    0.0300
      2 O2         -0.6279    2.5346   51.7407 O.3     1  ZINC000269287897   -0.3800
      3 C3         -1.8209    2.4414   50.9598 C.3     1  ZINC000269287897    0.0600
      4 C4         -3.0401    2.6007   51.8703 C.3     1  ZINC000269287897    0.0600
      5 O5         -4.2282    2.3125   51.1305 O.3     1  ZINC000269287897   -0.3800
      6 C6         -5.4356    2.6583   51.8120 C.3     1  ZINC000269287897    0.0700
      7 C7         -6.4791    1.5618   51.5893 C.3     1  ZINC000269287897   -0.1000
      8 H8         -6.9380    1.6562   50.6051 H       1  ZINC000269287897    0.1000
      9 C9         -5.8554    0.1538   51.7793 C.3     1  ZINC000269287897   -0.1200
     10 C10        -7.0660   -0.7067   52.1984 C.3     1  ZINC000269287897    0.1000
     11 N11        -8.0818    0.2053   52.7441 N.am    1  ZINC000269287897   -0.6300
     12 C12        -9.2964   -0.1559   53.2032 C.2     1  ZINC000269287897    0.7300
     13 O13        -9.6291   -1.3254   53.1876 O.2     1  ZINC000269287897   -0.5600
     14 N14       -10.1421    0.7790   53.6796 N.am    1  ZINC000269287897   -0.6900
     15 C15       -11.4037    0.4038   54.1564 C.ar    1  ZINC000269287897    0.1800
     16 C16       -12.4382    0.1540   53.2652 C.ar    1  ZINC000269287897   -0.0600
     17 C17       -12.2046    0.2864   51.7823 C.3     1  ZINC000269287897   -0.1000
     18 C18       -13.6820   -0.2167   53.7388 C.ar    1  ZINC000269287897   -0.0900
     19 C19       -13.8974   -0.3391   55.0990 C.ar    1  ZINC000269287897   -0.0800
     20 C20       -15.2555   -0.7436   55.6117 C.3     1  ZINC000269287897   -0.1100
     21 C21       -12.8691   -0.0915   55.9902 C.ar    1  ZINC000269287897   -0.0900
     22 C22       -11.6215    0.2749   55.5229 C.ar    1  ZINC000269287897   -0.1000
     23 Br23      -10.2157    0.6127   56.7417 Br      1  ZINC000269287897   -0.0500
     24 C24        -7.5519    1.5811   52.7065 C.3     1  ZINC000269287897    0.1400
     25 H25        -0.2738    4.5470   51.4344 H       1  ZINC000269287897    0.0400
     26 H26        -1.2015    4.1460   52.8996 H       1  ZINC000269287897    0.0400
     27 H27         0.5490    3.8289   52.8399 H       1  ZINC000269287897    0.0900
     28 H28        -1.8247    3.2291   50.2065 H       1  ZINC000269287897    0.0600
     29 H29        -1.8588    1.4689   50.4689 H       1  ZINC000269287897    0.0600
     30 H30        -2.9589    1.9109   52.7104 H       1  ZINC000269287897    0.0700
     31 H31        -3.0837    3.6240   52.2434 H       1  ZINC000269287897    0.0600
     32 H32        -5.2350    2.7577   52.8788 H       1  ZINC000269287897    0.0600
     33 H33        -5.8139    3.6040   51.4238 H       1  ZINC000269287897    0.0500
     34 H34        -5.4299   -0.2090   50.8436 H       1  ZINC000269287897    0.0900
     35 H35        -5.1018    0.1689   52.5667 H       1  ZINC000269287897    0.0800
     36 H36        -7.4663   -1.2311   51.3307 H       1  ZINC000269287897    0.0700
     37 H37        -6.7642   -1.4245   52.9612 H       1  ZINC000269287897    0.0700
     38 H38        -9.8768    1.7119   53.6920 H       1  ZINC000269287897    0.4100
     39 H39       -12.0080   -0.6973   51.3561 H       1  ZINC000269287897    0.0900
     40 H40       -13.0892    0.7160   51.3122 H       1  ZINC000269287897    0.0600
     41 H41       -11.3476    0.9365   51.6062 H       1  ZINC000269287897    0.0600
     42 H42       -14.4871   -0.4108   53.0457 H       1  ZINC000269287897    0.1300
     43 H43       -15.3055   -1.8295   55.6904 H       1  ZINC000269287897    0.0700
     44 H44       -15.4200   -0.3002   56.5938 H       1  ZINC000269287897    0.0700
     45 H45       -16.0233   -0.3935   54.9219 H       1  ZINC000269287897    0.0700
     46 H46       -13.0405   -0.1879   57.0521 H       1  ZINC000269287897    0.1400
     47 H47        -7.0978    1.8389   53.6632 H       1  ZINC000269287897    0.0700
     48 H48        -8.3454    2.2866   52.4599 H       1  ZINC000269287897    0.0900
@<TRIPOS>BOND
     1     1     2    1
     2     1    25    1
     3     1    26    1
     4     1    27    1
     5     2     3    1
     6     3     4    1
     7     3    28    1
     8     3    29    1
     9     4     5    1
    10     4    30    1
    11     4    31    1
    12     5     6    1
    13     6     7    1
    14     6    32    1
    15     6    33    1
    16     7     8    1
    17     7    24    1
    18     7     9    1
    19     9    10    1
    20     9    34    1
    21     9    35    1
    22    10    11    1
    23    10    36    1
    24    10    37    1
    25    11    12   am
    26    11    24    1
    27    12    13    2
    28    12    14   am
    29    14    15    1
    30    14    38    1
    31    15    22   ar
    32    15    16   ar
    33    16    17    1
    34    16    18   ar
    35    17    39    1
    36    17    40    1
    37    17    41    1
    38    18    19   ar
    39    18    42    1
    40    19    20    1
    41    19    21   ar
    42    20    43    1
    43    20    44    1
    44    20    45    1
    45    21    22   ar
    46    21    46    1
    47    22    23    1
    48    24    47    1
    49    24    48    1
@<TRIPOS>SUBSTRUCTURE
     1 ZINC000269287897        1 TEMP              0 ****  ****    0 ROOT


##########                                Name:    ZINC000011972961
##########                DOCK_Rotatable_Bonds:                   6
##########                         Heavy_Atoms:                  28
##########                    Molecular_Weight:             397.501
##########                DOCK_Rotatable_Bonds:                   6
##########                       Formal_Charge:                   0
##########                     HBond_Acceptors:                   8
##########                        HBond_Donors:                   1
##########                         Heavy_Atoms:                  28
##########                          Grid_Score:          -29.582228
##########                     Grid_vdw_energy:          -29.582228
##########                      Grid_es_energy:            0.000000
##########           Internal_energy_repulsive:           30.411428

@<TRIPOS>MOLECULE
ZINC000011972961
 51 54 1 0 0
SMALL
USER_CHARGES


@<TRIPOS>ATOM
      1 C1         -6.1362    0.9948   52.4049 C.3        P      0.0000
      2 C2         -6.7795    2.2353   51.8406 C.2        P      0.0000
      3 C3         -6.0747    3.1789   51.2035 C.2        P      0.0000
      4 C4         -4.6249    3.1290   50.9784 C.2        P      0.0000
      5 O5         -4.1714    2.4394   50.0843 O.2        P      0.0000
      6 N6         -3.7962    3.8472   51.7618 N.am       P      0.0000
      7 C7         -4.3422    4.6776   52.8383 C.3        P      0.0000
      8 C8         -2.3493    3.7975   51.5372 C.3        P      0.0000
      9 H9         -2.1339    3.5474   50.4983 H          P      0.0000
     10 C10        -1.6954    5.1486   51.9160 C.3        P      0.0000
     11 C11        -1.1727    4.8662   53.3476 C.3        P      0.0000
     12 O12        -0.7269    3.4947   53.2790 O.3        P      0.0000
     13 C13        -1.6910    2.7767   52.4854 C.3        P      0.0000
     14 S14        -7.1232    4.4833   50.6742 S.3        P      0.0000
     15 C15        -8.5372    3.6885   51.3534 C.ar       P      0.0000
     16 N16        -9.8253    4.0489   51.3801 N.ar       P      0.0000
     17 C17       -10.7304    3.2880   51.9519 C.ar       P      0.0000
     18 N18       -10.4233    2.1389   52.5254 N.ar       P      0.0000
     19 C19        -9.1760    1.6946   52.5515 C.ar       P      0.0000
     20 N20        -8.8729    0.4911   53.1553 N.pl3      P      0.0000
     21 C21        -9.9401   -0.4656   53.4585 C.3        P      0.0000
     22 C22       -10.2901   -0.3805   54.9218 C.ar       P      0.0000
     23 N23       -10.7982   -1.4328   55.5326 N.ar       P      0.0000
     24 C24       -11.1190   -1.4046   56.8115 C.ar       P      0.0000
     25 C25       -11.6966   -2.6353   57.4618 C.3        P      0.0000
     26 C26       -10.9313   -0.2598   57.5622 C.ar       P      0.0000
     27 C27       -10.3992    0.8672   56.9543 C.ar       P      0.0000
     28 C28       -10.0697    0.7981   55.6095 C.ar       P      0.0000
     29 C29        -8.1537    2.4755   51.9420 C.ar       P      0.0000
     30 H30        -6.4580    0.1256   51.8312 H          P      0.0000
     31 H31        -5.0518    1.0884   52.3452 H          P      0.0000
     32 H32        -6.4335    0.8730   53.4465 H          P      0.0000
     33 H33        -4.8038    4.0390   53.5912 H          P      0.0000
     34 H34        -3.5384    5.2552   53.2948 H          P      0.0000
     35 H35        -5.0906    5.3565   52.4294 H          P      0.0000
     36 H36        -0.8728    5.3854   51.2412 H          P      0.0000
     37 H37        -2.4343    5.9501   51.9228 H          P      0.0000
     38 H38        -0.3415    5.5283   53.5903 H          P      0.0000
     39 H39        -1.9754    4.9728   54.0773 H          P      0.0000
     40 H40        -2.4465    2.3319   53.1330 H          P      0.0000
     41 H41        -1.1906    1.9992   51.9081 H          P      0.0000
     42 H42       -11.7602    3.6134   51.9535 H          P      0.0000
     43 H43        -7.9532    0.2787   53.3788 H          P      0.0000
     44 H44       -10.8202   -0.2300   52.8601 H          P      0.0000
     45 H45        -9.6009   -1.4746   53.2242 H          P      0.0000
     46 H46       -10.8888   -3.2472   57.8632 H          P      0.0000
     47 H47       -12.3645   -2.3393   58.2708 H          P      0.0000
     48 H48       -12.2542   -3.2095   56.7219 H          P      0.0000
     49 H49       -11.1960   -0.2429   58.6092 H          P      0.0000
     50 H50       -10.2414    1.7761   57.5161 H          P      0.0000
     51 H51        -9.6528    1.6565   55.1038 H          P      0.0000
@<TRIPOS>BOND
     1     1     2    1
     2     1    30    1
     3     1    31    1
     4     1    32    1
     5     2    29    1
     6     2     3    2
     7     3     4    1
     8     3    14    1
     9     4     5    2
    10     4     6   am
    11     6     7    1
    12     6     8    1
    13     7    33    1
    14     7    34    1
    15     7    35    1
    16     8     9    1
    17     8    13    1
    18     8    10    1
    19    10    11    1
    20    10    36    1
    21    10    37    1
    22    11    12    1
    23    11    38    1
    24    11    39    1
    25    12    13    1
    26    13    40    1
    27    13    41    1
    28    14    15    1
    29    15    29   ar
    30    15    16   ar
    31    16    17   ar
    32    17    18   ar
    33    17    42    1
    34    18    19   ar
    35    19    20    1
    36    19    29   ar
    37    20    21    1
    38    20    43    1
    39    21    22    1
    40    21    44    1
    41    21    45    1
    42    22    28   ar
    43    22    23   ar
    44    23    24   ar
    45    24    25    1
    46    24    26   ar
    47    25    46    1
    48    25    47    1
    49    25    48    1
    50    26    27   ar
    51    26    49    1
    52    27    28   ar
    53    27    50    1
    54    28    51    1
@<TRIPOS>SUBSTRUCTURE
     1 P        1 TEMP              0 ****  ****    0 ROOT


##########                                Name:    ZINC000444811358
##########                DOCK_Rotatable_Bonds:                  11
##########                         Heavy_Atoms:                  27
##########                    Molecular_Weight:             374.455
##########                DOCK_Rotatable_Bonds:                  11
##########                       Formal_Charge:          0.00999966
##########                     HBond_Acceptors:                   6
##########                        HBond_Donors:                   2
##########                         Heavy_Atoms:                  27
##########                          Grid_Score:          -29.547419
##########                     Grid_vdw_energy:          -28.039379
##########                      Grid_es_energy:           -1.508039
##########           Internal_energy_repulsive:           18.683516

@<TRIPOS>MOLECULE
ZINC000444811358
 54 55 1 0 0
SMALL
USER_CHARGES


@<TRIPOS>ATOM
      1 C1          0.8781    2.2201   50.5235 C.3     1  ZINC000444811358   -0.1100
      2 C2         -0.5306    2.3763   51.0356 C.ar    1  ZINC000444811358   -0.1300
      3 C3         -0.7501    2.8031   52.3319 C.ar    1  ZINC000444811358   -0.0700
      4 C4         -2.0401    2.9470   52.8048 C.ar    1  ZINC000444811358   -0.1500
      5 C5         -3.1183    2.6631   51.9770 C.ar    1  ZINC000444811358    0.1700
      6 N6         -4.4255    2.8086   52.4541 N.am    1  ZINC000444811358   -0.6800
      7 C7         -5.0811    3.9732   52.2789 C.2     1  ZINC000444811358    0.5200
      8 O8         -4.5378    4.8949   51.7076 O.2     1  ZINC000444811358   -0.5000
      9 C9         -6.4890    4.1300   52.7928 C.3     1  ZINC000444811358    0.0200
     10 N10        -6.6889    3.2476   53.9502 N.3     1  ZINC000444811358   -0.5000
     11 C11        -6.1141    3.8369   55.1669 C.3     1  ZINC000444811358    0.0200
     12 C12        -5.8341    2.7307   56.1861 C.3     1  ZINC000444811358    0.1100
     13 H13        -6.0776    1.7629   55.7480 H       1  ZINC000444811358    0.1200
     14 O14        -4.4521    2.7555   56.5483 O.3     1  ZINC000444811358   -0.5400
     15 C15        -6.6922    2.9566   57.4326 C.3     1  ZINC000444811358    0.0300
     16 O16        -6.7308    1.7570   58.2081 O.3     1  ZINC000444811358   -0.3000
     17 C17        -7.3797    1.8140   59.4008 C.ar    1  ZINC000444811358    0.1300
     18 C18        -8.0766    2.9589   59.7587 C.ar    1  ZINC000444811358   -0.2100
     19 C19        -8.7358    3.0142   60.9714 C.ar    1  ZINC000444811358   -0.0800
     20 C20        -8.7011    1.9298   61.8284 C.ar    1  ZINC000444811358   -0.1600
     21 C21        -8.0070    0.7877   61.4744 C.ar    1  ZINC000444811358   -0.0800
     22 C22        -7.3512    0.7251   60.2600 C.ar    1  ZINC000444811358   -0.1500
     23 C23        -8.1128    2.9386   54.1369 C.3     1  ZINC000444811358    0.0700
     24 C24        -8.9470    4.1911   53.8603 C.3     1  ZINC000444811358   -0.1400
     25 C25        -8.5247    1.8275   53.1690 C.3     1  ZINC000444811358   -0.1900
     26 C26        -2.8969    2.2347   50.6748 C.ar    1  ZINC000444811358   -0.1500
     27 C27        -1.6033    2.0974   50.2046 C.ar    1  ZINC000444811358    0.1200
     28 F28        -1.3859    1.6808   48.9380 F       1  ZINC000444811358   -0.1300
     29 H29         1.2102    3.1594   50.0816 H       1  ZINC000444811358    0.0700
     30 H30         1.5375    1.9539   51.3496 H       1  ZINC000444811358    0.0700
     31 H31         0.9053    1.4339   49.7690 H       1  ZINC000444811358    0.0700
     32 H32         0.0882    3.0241   52.9760 H       1  ZINC000444811358    0.1400
     33 H33        -2.2100    3.2799   53.8180 H       1  ZINC000444811358    0.1300
     34 H34        -4.8600    2.0716   52.9110 H       1  ZINC000444811358    0.4100
     35 H35        -6.6533    5.1650   53.0925 H       1  ZINC000444811358    0.1300
     36 H36        -7.1948    3.8630   52.0062 H       1  ZINC000444811358    0.0700
     37 H37        -5.1832    4.3467   54.9189 H       1  ZINC000444811358    0.0500
     38 H38        -6.8182    4.5525   55.5916 H       1  ZINC000444811358    0.1000
     39 H39        -3.8472    2.6857   55.7970 H       1  ZINC000444811358    0.3700
     40 H40        -6.2619    3.7611   58.0290 H       1  ZINC000444811358    0.0600
     41 H41        -7.7043    3.2282   57.1327 H       1  ZINC000444811358    0.0700
     42 H42        -8.1035    3.8065   59.0898 H       1  ZINC000444811358    0.1300
     43 H43        -9.2785    3.9053   61.2505 H       1  ZINC000444811358    0.1200
     44 H44        -9.2169    1.9751   62.7763 H       1  ZINC000444811358    0.1200
     45 H45        -7.9811   -0.0580   62.1457 H       1  ZINC000444811358    0.1300
     46 H46        -6.8090   -0.1672   59.9839 H       1  ZINC000444811358    0.1300
     47 H47        -8.2816    2.6087   55.1620 H       1  ZINC000444811358    0.0900
     48 H48        -8.8827    4.4441   52.8020 H       1  ZINC000444811358    0.0500
     49 H49        -9.9869    4.0009   54.1258 H       1  ZINC000444811358    0.0600
     50 H50        -8.5657    5.0205   54.4560 H       1  ZINC000444811358    0.0700
     51 H51        -7.9305    0.9353   53.3661 H       1  ZINC000444811358    0.0500
     52 H52        -9.5813    1.5983   53.3076 H       1  ZINC000444811358    0.0700
     53 H53        -8.3559    2.1574   52.1440 H       1  ZINC000444811358    0.0600
     54 H54        -3.7335    2.0128   50.0289 H       1  ZINC000444811358    0.1500
@<TRIPOS>BOND
     1     1     2    1
     2     1    29    1
     3     1    30    1
     4     1    31    1
     5     2    27   ar
     6     2     3   ar
     7     3     4   ar
     8     3    32    1
     9     4     5   ar
    10     4    33    1
    11     5     6    1
    12     5    26   ar
    13     6     7   am
    14     6    34    1
    15     7     8    2
    16     7     9    1
    17     9    10    1
    18     9    35    1
    19     9    36    1
    20    10    11    1
    21    10    23    1
    22    11    12    1
    23    11    37    1
    24    11    38    1
    25    12    13    1
    26    12    14    1
    27    12    15    1
    28    14    39    1
    29    15    16    1
    30    15    40    1
    31    15    41    1
    32    16    17    1
    33    17    22   ar
    34    17    18   ar
    35    18    19   ar
    36    18    42    1
    37    19    20   ar
    38    19    43    1
    39    20    21   ar
    40    20    44    1
    41    21    22   ar
    42    21    45    1
    43    22    46    1
    44    23    24    1
    45    23    25    1
    46    23    47    1
    47    24    48    1
    48    24    49    1
    49    24    50    1
    50    25    51    1
    51    25    52    1
    52    25    53    1
    53    26    27   ar
    54    26    54    1
    55    27    28    1
@<TRIPOS>SUBSTRUCTURE
     1 ZINC000444811358        1 TEMP              0 ****  ****    0 ROOT


##########                                Name:    ZINC000821214121
##########                DOCK_Rotatable_Bonds:                  10
##########                         Heavy_Atoms:                  23
##########                    Molecular_Weight:             338.434
##########                DOCK_Rotatable_Bonds:                  10
##########                       Formal_Charge:          0.00999954
##########                     HBond_Acceptors:                   9
##########                        HBond_Donors:                   3
##########                         Heavy_Atoms:                  23
##########                          Grid_Score:          -29.542145
##########                     Grid_vdw_energy:          -28.950195
##########                      Grid_es_energy:           -0.591950
##########           Internal_energy_repulsive:           12.585476

@<TRIPOS>MOLECULE
ZINC000821214121
 45 46 1 0 0
SMALL
USER_CHARGES


@<TRIPOS>ATOM
      1 C1         -7.5646    2.2467   54.0189 C.3     1  ZINC000821214121   -0.1500
      2 C2         -6.4356    2.4692   53.0105 C.3     1  ZINC000821214121    0.0500
      3 N3         -6.9137    2.1427   51.6604 N.3     1  ZINC000821214121   -0.5200
      4 C4         -6.9696    3.3440   50.8169 C.3     1  ZINC000821214121    0.0600
      5 C5         -8.2707    4.1006   51.0925 C.3     1  ZINC000821214121   -0.1200
      6 C6         -8.3715    5.3018   50.1503 C.3     1  ZINC000821214121    0.0800
      7 O7         -7.2629    6.1758   50.3724 O.3     1  ZINC000821214121   -0.5700
      8 C8         -6.0781    1.1043   51.0428 C.3     1  ZINC000821214121    0.0400
      9 C9         -4.7348    1.6868   50.6859 C.2     1  ZINC000821214121    0.5000
     10 O10        -4.5716    2.2190   49.6080 O.2     1  ZINC000821214121   -0.4800
     11 N11        -3.7149    1.6167   51.5640 N.am    1  ZINC000821214121   -0.6300
     12 C12        -2.4732    2.1569   51.2345 C.2     1  ZINC000821214121    0.0800
     13 C13        -1.8508    3.1680   51.9043 C.2     1  ZINC000821214121   -0.1000
     14 C14        -2.4381    3.8292   53.0942 C.2     1  ZINC000821214121    0.2900
     15 N15        -3.2173    4.8955   53.0918 N.2     1  ZINC000821214121   -0.3300
     16 N16        -3.5226    5.1521   54.4385 N.pl3   1  ZINC000821214121   -0.2900
     17 N17        -2.9258    4.2515   55.1419 N.2     1  ZINC000821214121    0.0200
     18 N18        -2.2813    3.4525   54.3680 N.2     1  ZINC000821214121   -0.2900
     19 C19        -0.6126    3.5253   51.3710 C.2     1  ZINC000821214121   -0.0500
     20 C20         0.2379    4.6195   51.9630 C.3     1  ZINC000821214121   -0.1000
     21 C21        -0.2378    2.8295   50.3028 C.2     1  ZINC000821214121   -0.2400
     22 C22         1.0539    3.0308   49.5531 C.3     1  ZINC000821214121   -0.0800
     23 S23        -1.4613    1.6357   49.8941 S.3     1  ZINC000821214121    0.2600
     24 H24        -8.4428    2.8150   53.7124 H       1  ZINC000821214121    0.0700
     25 H25        -7.8134    1.1862   54.0577 H       1  ZINC000821214121    0.0500
     26 H26        -7.2418    2.5805   55.0051 H       1  ZINC000821214121    0.0600
     27 H27        -6.1206    3.5122   53.0421 H       1  ZINC000821214121    0.0900
     28 H28        -5.5917    1.8270   53.2624 H       1  ZINC000821214121    0.0400
     29 H29        -6.1199    3.9877   51.0444 H       1  ZINC000821214121    0.0400
     30 H30        -6.9342    3.0529   49.7671 H       1  ZINC000821214121    0.0800
     31 H31        -9.1192    3.4367   50.9269 H       1  ZINC000821214121    0.0800
     32 H32        -8.2772    4.4477   52.1257 H       1  ZINC000821214121    0.0700
     33 H33        -8.3597    4.9552   49.1171 H       1  ZINC000821214121    0.0400
     34 H34        -9.3009    5.8377   50.3432 H       1  ZINC000821214121    0.0500
     35 H35        -6.4011    5.7647   50.2192 H       1  ZINC000821214121    0.3800
     36 H36        -5.9424    0.2818   51.7450 H       1  ZINC000821214121    0.0700
     37 H37        -6.5653    0.7349   50.1405 H       1  ZINC000821214121    0.1200
     38 H38        -3.8450    1.1902   52.4255 H       1  ZINC000821214121    0.4200
     39 H39        -4.0780    5.8722   54.7760 H       1  ZINC000821214121    0.4700
     40 H40         0.9037    4.1956   52.7148 H       1  ZINC000821214121    0.0700
     41 H41         0.8295    5.0862   51.1754 H       1  ZINC000821214121    0.0700
     42 H42        -0.4043    5.3680   52.4269 H       1  ZINC000821214121    0.0900
     43 H43         1.8260    2.3920   49.9817 H       1  ZINC000821214121    0.0700
     44 H44         0.9093    2.7722   48.5041 H       1  ZINC000821214121    0.0700
     45 H45         1.3606    4.0738   49.6313 H       1  ZINC000821214121    0.0800
@<TRIPOS>BOND
     1     1     2    1
     2     1    24    1
     3     1    25    1
     4     1    26    1
     5     2     3    1
     6     2    27    1
     7     2    28    1
     8     3     4    1
     9     3     8    1
    10     4     5    1
    11     4    29    1
    12     4    30    1
    13     5     6    1
    14     5    31    1
    15     5    32    1
    16     6     7    1
    17     6    33    1
    18     6    34    1
    19     7    35    1
    20     8     9    1
    21     8    36    1
    22     8    37    1
    23     9    10    2
    24     9    11   am
    25    11    12    1
    26    11    38    1
    27    12    23    1
    28    12    13    2
    29    13    14    1
    30    13    19    1
    31    14    18    1
    32    14    15    2
    33    15    16    1
    34    16    17    1
    35    16    39    1
    36    17    18    2
    37    19    20    1
    38    19    21    2
    39    20    40    1
    40    20    41    1
    41    20    42    1
    42    21    22    1
    43    21    23    1
    44    22    43    1
    45    22    44    1
    46    22    45    1
@<TRIPOS>SUBSTRUCTURE
     1 ZINC000821214121        1 TEMP              0 ****  ****    0 ROOT


##########                                Name:    ZINC000652498551
##########                DOCK_Rotatable_Bonds:                   6
##########                         Heavy_Atoms:                  23
##########                    Molecular_Weight:             388.277
##########                DOCK_Rotatable_Bonds:                   6
##########                       Formal_Charge:          -0.0400001
##########                     HBond_Acceptors:                   5
##########                        HBond_Donors:                   1
##########                         Heavy_Atoms:                  23
##########                          Grid_Score:          -29.535847
##########                     Grid_vdw_energy:          -28.978268
##########                      Grid_es_energy:           -0.557579
##########           Internal_energy_repulsive:           20.321810

@<TRIPOS>MOLECULE
ZINC000652498551
 46 47 1 0 0
SMALL
USER_CHARGES


@<TRIPOS>ATOM
      1 C1        -11.8322    2.7483   55.1449 C.3     1  ZINC000652498551   -0.1300
      2 C2        -10.3423    2.4017   55.1760 C.3     1  ZINC000652498551   -0.1300
      3 C3         -9.5186    3.6911   55.1790 C.3     1  ZINC000652498551   -0.1300
      4 C4        -10.0372    1.6078   56.4201 C.2     1  ZINC000652498551    0.5000
      5 O5        -10.9043    0.9210   56.9329 O.co2   1  ZINC000652498551   -0.7000
      6 O6         -8.9233    1.6524   56.9139 O.co2   1  ZINC000652498551   -0.6700
      7 C7         -9.9858    1.5717   53.9412 C.3     1  ZINC000652498551   -0.0600
      8 H8        -10.2147    2.1419   53.0409 H       1  ZINC000652498551    0.0700
      9 C9        -10.7989    0.2739   53.9452 C.3     1  ZINC000652498551   -0.1500
     10 C10       -10.3781   -0.5841   52.7485 C.3     1  ZINC000652498551   -0.1400
     11 C11        -8.8718   -0.8434   52.8183 C.3     1  ZINC000652498551   -0.0100
     12 N12        -8.1496    0.4340   52.7843 N.4     1  ZINC000652498551   -0.3800
     13 H13        -8.4055    0.9417   51.9507 H       1  ZINC000652498551    0.4200
     14 C14        -6.7033    0.1771   52.7748 C.3     1  ZINC000652498551    0.0000
     15 C15        -6.2933   -0.3802   51.4101 C.3     1  ZINC000652498551    0.0200
     16 O16        -6.4306    0.6394   50.4183 O.3     1  ZINC000652498551   -0.3100
     17 C17        -5.7747    1.8087   50.6407 C.ar    1  ZINC000652498551    0.1600
     18 C18        -6.4655    3.0104   50.6018 C.ar    1  ZINC000652498551   -0.2300
     19 C19        -5.7955    4.2000   50.8285 C.ar    1  ZINC000652498551    0.1500
     20 F20        -6.4676    5.3713   50.7909 F       1  ZINC000652498551   -0.1200
     21 C21        -4.4367    4.1898   51.0941 C.ar    1  ZINC000652498551   -0.1600
     22 C22        -3.7468    2.9912   51.1325 C.ar    1  ZINC000652498551   -0.0300
     23 Br23       -1.8910    2.9808   51.4957 Br      1  ZINC000652498551   -0.0100
     24 C24        -4.4140    1.8009   50.9123 C.ar    1  ZINC000652498551   -0.1300
     25 C25        -8.4937    1.2335   53.9663 C.3     1  ZINC000652498551   -0.0200
     26 H26       -12.0529    3.3226   54.2450 H       1  ZINC000652498551    0.0400
     27 H27       -12.4189    1.8298   55.1428 H       1  ZINC000652498551    0.0500
     28 H28       -12.0862    3.3397   56.0246 H       1  ZINC000652498551    0.0600
     29 H29        -9.7726    4.2824   56.0588 H       1  ZINC000652498551    0.0700
     30 H30        -8.4572    3.4441   55.2014 H       1  ZINC000652498551    0.0400
     31 H31        -9.7393    4.2653   54.2792 H       1  ZINC000652498551    0.0500
     32 H32       -10.6098   -0.2718   54.8695 H       1  ZINC000652498551    0.1300
     33 H33       -11.8606    0.5089   53.8699 H       1  ZINC000652498551    0.0800
     34 H34       -10.9127   -1.5336   52.7758 H       1  ZINC000652498551    0.1000
     35 H35       -10.6147   -0.0590   51.8231 H       1  ZINC000652498551    0.0700
     36 H36        -8.6364   -1.3687   53.7440 H       1  ZINC000652498551    0.1300
     37 H37        -8.5689   -1.4543   51.9679 H       1  ZINC000652498551    0.1100
     38 H38        -6.1677    1.1076   52.9629 H       1  ZINC000652498551    0.1400
     39 H39        -6.4577   -0.5469   53.5516 H       1  ZINC000652498551    0.1500
     40 H40        -5.2555   -0.7112   51.4496 H       1  ZINC000652498551    0.1100
     41 H41        -6.9343   -1.2240   51.1548 H       1  ZINC000652498551    0.0900
     42 H42        -7.5254    3.0181   50.3946 H       1  ZINC000652498551    0.1500
     43 H43        -3.9148    5.1185   51.2713 H       1  ZINC000652498551    0.1500
     44 H44        -3.8746    0.8658   50.9428 H       1  ZINC000652498551    0.1500
     45 H45        -7.9116    2.1549   53.9630 H       1  ZINC000652498551    0.1100
     46 H46        -8.2667    0.6644   54.8678 H       1  ZINC000652498551    0.1700
@<TRIPOS>BOND
     1     1     2    1
     2     1    26    1
     3     1    27    1
     4     1    28    1
     5     2     3    1
     6     2     4    1
     7     2     7    1
     8     3    29    1
     9     3    30    1
    10     3    31    1
    11     4     5   ar
    12     4     6   ar
    13     7     8    1
    14     7    25    1
    15     7     9    1
    16     9    10    1
    17     9    32    1
    18     9    33    1
    19    10    11    1
    20    10    34    1
    21    10    35    1
    22    11    12    1
    23    11    36    1
    24    11    37    1
    25    12    13    1
    26    12    14    1
    27    12    25    1
    28    14    15    1
    29    14    38    1
    30    14    39    1
    31    15    16    1
    32    15    40    1
    33    15    41    1
    34    16    17    1
    35    17    24   ar
    36    17    18   ar
    37    18    19   ar
    38    18    42    1
    39    19    20    1
    40    19    21   ar
    41    21    22   ar
    42    21    43    1
    43    22    23    1
    44    22    24   ar
    45    24    44    1
    46    25    45    1
    47    25    46    1
@<TRIPOS>SUBSTRUCTURE
     1 ZINC000652498551        1 TEMP              0 ****  ****    0 ROOT


##########                                Name:    ZINC000842947763
##########                DOCK_Rotatable_Bonds:                   7
##########                         Heavy_Atoms:                  24
##########                    Molecular_Weight:             365.373
##########                DOCK_Rotatable_Bonds:                   7
##########                       Formal_Charge:          0.00999997
##########                     HBond_Acceptors:                   9
##########                        HBond_Donors:                   0
##########                         Heavy_Atoms:                  24
##########                          Grid_Score:          -29.527996
##########                     Grid_vdw_energy:          -28.222443
##########                      Grid_es_energy:           -1.305553
##########           Internal_energy_repulsive:           32.921852

@<TRIPOS>MOLECULE
ZINC000842947763
 42 43 1 0 0
SMALL
USER_CHARGES


@<TRIPOS>ATOM
      1 C1        -10.1366    0.8920   56.8731 C.3     1  ZINC000842947763   -0.1600
      2 C2        -10.7669   -0.3368   56.2146 C.3     1  ZINC000842947763   -0.1000
      3 H3         -9.9896   -1.0665   55.9880 H       1  ZINC000842947763    0.1000
      4 C4        -11.4670    0.0812   54.9199 C.3     1  ZINC000842947763    0.0800
      5 O5        -10.5143    0.7425   54.0462 O.3     1  ZINC000842947763   -0.3500
      6 C6         -9.6062   -0.0386   53.4286 C.2     1  ZINC000842947763    0.5200
      7 O7         -9.7891   -1.2373   53.3500 O.2     1  ZINC000842947763   -0.5100
      8 C8         -8.3912    0.5611   52.8488 C.ar    1  ZINC000842947763   -0.1600
      9 C9         -7.2403   -0.2128   52.6696 C.ar    1  ZINC000842947763   -0.0200
     10 C10        -6.1112    0.3521   52.1284 C.ar    1  ZINC000842947763   -0.1700
     11 C11        -6.1047    1.7014   51.7541 C.ar    1  ZINC000842947763    0.2000
     12 C12        -7.2536    2.4623   51.9361 C.ar    1  ZINC000842947763   -0.1500
     13 C13        -8.3826    1.9065   52.4687 C.ar    1  ZINC000842947763   -0.0100
     14 C14        -6.9772    3.8691   51.4532 C.3     1  ZINC000842947763   -0.0800
     15 C15        -5.5194    3.8282   50.9667 C.3     1  ZINC000842947763    0.1100
     16 N16        -5.0762    2.4508   51.1959 N.am    1  ZINC000842947763   -0.9400
     17 S17        -3.5664    1.8704   50.8413 S.o2    1  ZINC000842947763    2.6100
     18 C18        -2.4442    2.8885   51.8387 C.3     1  ZINC000842947763   -0.6700
     19 O19        -3.5838    0.5325   51.3197 O.2     1  ZINC000842947763   -0.9300
     20 O20        -3.3986    2.1519   49.4586 O.2     1  ZINC000842947763   -0.9400
     21 C21       -11.7882   -0.9592   57.1686 C.3     1  ZINC000842947763   -0.1600
     22 C22       -11.0987   -2.0139   58.0365 C.3     1  ZINC000842947763    0.4600
     23 F23       -12.0548   -2.6749   58.8149 F       1  ZINC000842947763   -0.1800
     24 F24       -10.4452   -2.9390   57.2153 F       1  ZINC000842947763   -0.1800
     25 F25       -10.1655   -1.3920   58.8728 F       1  ZINC000842947763   -0.1800
     26 H26        -9.5218    0.5771   57.7164 H       1  ZINC000842947763    0.0700
     27 H27        -9.5157    1.4155   56.1462 H       1  ZINC000842947763    0.0700
     28 H28       -10.9233    1.5588   57.2262 H       1  ZINC000842947763    0.0600
     29 H29       -11.8654   -0.8021   54.4208 H       1  ZINC000842947763    0.0800
     30 H30       -12.2826    0.7660   55.1527 H       1  ZINC000842947763    0.0800
     31 H31        -7.2391   -1.2539   52.9570 H       1  ZINC000842947763    0.1500
     32 H32        -5.2236   -0.2477   51.9909 H       1  ZINC000842947763    0.1500
     33 H33        -9.2679    2.5101   52.6038 H       1  ZINC000842947763    0.1400
     34 H34        -7.6456    4.1277   50.6318 H       1  ZINC000842947763    0.1000
     35 H35        -7.0857    4.5808   52.2717 H       1  ZINC000842947763    0.1000
     36 H36        -5.4681    4.0702   49.9051 H       1  ZINC000842947763    0.1000
     37 H37        -4.9087    4.5228   51.5435 H       1  ZINC000842947763    0.0900
     38 H38        -2.6881    2.7701   52.8946 H       1  ZINC000842947763    0.1300
     39 H39        -1.4157    2.5718   51.6657 H       1  ZINC000842947763    0.1400
     40 H40        -2.5547    3.9353   51.5555 H       1  ZINC000842947763    0.1300
     41 H41       -12.2098   -0.1827   57.8068 H       1  ZINC000842947763    0.1200
     42 H42       -12.5856   -1.4281   56.5918 H       1  ZINC000842947763    0.1100
@<TRIPOS>BOND
     1     1     2    1
     2     1    26    1
     3     1    27    1
     4     1    28    1
     5     2     3    1
     6     2     4    1
     7     2    21    1
     8     4     5    1
     9     4    29    1
    10     4    30    1
    11     5     6    1
    12     6     7    2
    13     6     8    1
    14     8    13   ar
    15     8     9   ar
    16     9    10   ar
    17     9    31    1
    18    10    11   ar
    19    10    32    1
    20    11    16    1
    21    11    12   ar
    22    12    13   ar
    23    12    14    1
    24    13    33    1
    25    14    15    1
    26    14    34    1
    27    14    35    1
    28    15    16    1
    29    15    36    1
    30    15    37    1
    31    16    17   am
    32    17    18    1
    33    17    19    2
    34    17    20    2
    35    18    38    1
    36    18    39    1
    37    18    40    1
    38    21    22    1
    39    21    41    1
    40    21    42    1
    41    22    23    1
    42    22    24    1
    43    22    25    1
@<TRIPOS>SUBSTRUCTURE
     1 ZINC000842947763        1 TEMP              0 ****  ****    0 ROOT


##########                                Name:    ZINC000822449555
##########                DOCK_Rotatable_Bonds:                   5
##########                         Heavy_Atoms:                  27
##########                    Molecular_Weight:             366.383
##########                DOCK_Rotatable_Bonds:                   5
##########                       Formal_Charge:          -0.0100009
##########                     HBond_Acceptors:                  10
##########                        HBond_Donors:                   2
##########                         Heavy_Atoms:                  27
##########                          Grid_Score:          -29.522432
##########                     Grid_vdw_energy:          -27.646450
##########                      Grid_es_energy:           -1.875982
##########           Internal_energy_repulsive:            8.077939

@<TRIPOS>MOLECULE
ZINC000822449555
 45 48 1 0 0
SMALL
USER_CHARGES


@<TRIPOS>ATOM
      1 C1         -7.0345    3.8431   53.6598 C.3     1  ZINC000822449555   -0.1100
      2 C2         -7.6253    2.4851   53.3803 C.ar    1  ZINC000822449555    0.1400
      3 N3         -8.9178    2.2875   53.5564 N.ar    1  ZINC000822449555   -0.5000
      4 C4         -9.4797    1.1117   53.3234 C.ar    1  ZINC000822449555    0.3000
      5 N5        -10.8481    0.9512   53.5236 N.3     1  ZINC000822449555   -0.4700
      6 C6        -11.1166   -0.1245   54.4891 C.3     1  ZINC000822449555    0.0200
      7 C7        -12.6259   -0.2268   54.7242 C.3     1  ZINC000822449555    0.0600
      8 O8        -13.2845   -0.4450   53.4736 O.3     1  ZINC000822449555   -0.3800
      9 C9        -13.0452    0.5842   52.5097 C.3     1  ZINC000822449555    0.0600
     10 C10       -11.5401    0.6947   52.2522 C.3     1  ZINC000822449555    0.0300
     11 C11        -8.7187    0.0352   52.8806 C.ar    1  ZINC000822449555   -0.1700
     12 C12        -7.3603    0.2052   52.6849 C.ar    1  ZINC000822449555   -0.0500
     13 C13        -6.8051    1.4590   52.9357 C.ar    1  ZINC000822449555    0.0600
     14 N14        -5.4335    1.6770   52.7511 N.am    1  ZINC000822449555   -0.6600
     15 C15        -4.9509    1.9272   51.5178 C.2     1  ZINC000822449555    0.5700
     16 O16        -5.7058    1.9636   50.5653 O.2     1  ZINC000822449555   -0.5100
     17 C17        -3.5049    2.1570   51.3233 C.ar    1  ZINC000822449555   -0.1800
     18 C18        -2.6915    2.5214   52.4049 C.ar    1  ZINC000822449555   -0.0100
     19 C19        -1.3453    2.7256   52.1743 C.ar    1  ZINC000822449555   -0.1300
     20 C20        -0.8436    2.5636   50.8836 C.ar    1  ZINC000822449555    0.2300
     21 C21         0.6011    2.7809   50.6273 C.2     1  ZINC000822449555    0.2100
     22 N22         1.5139    3.1330   51.5116 N.2     1  ZINC000822449555   -0.2500
     23 N23         2.6444    3.2175   50.8988 N.pl3   1  ZINC000822449555   -0.2200
     24 N24         2.4774    2.9305   49.6550 N.2     1  ZINC000822449555   -0.0400
     25 N25         1.2344    2.6519   49.4523 N.2     1  ZINC000822449555   -0.2500
     26 N26        -1.6419    2.2170   49.8810 N.ar    1  ZINC000822449555   -0.4500
     27 C27        -2.9278    2.0084   50.0600 C.ar    1  ZINC000822449555    0.1400
     28 H28        -7.0714    4.4487   52.7543 H       1  ZINC000822449555    0.0800
     29 H29        -7.6062    4.3329   54.4480 H       1  ZINC000822449555    0.0800
     30 H30        -5.9985    3.7298   53.9791 H       1  ZINC000822449555    0.0700
     31 H31       -10.7450   -1.0698   54.0935 H       1  ZINC000822449555    0.0600
     32 H32       -10.6158    0.0986   55.4312 H       1  ZINC000822449555    0.1000
     33 H33       -12.8341   -1.0601   55.3954 H       1  ZINC000822449555    0.1100
     34 H34       -12.9885    0.6996   55.1698 H       1  ZINC000822449555    0.0600
     35 H35       -13.5566    0.3374   51.5793 H       1  ZINC000822449555    0.1000
     36 H36       -13.4199    1.5341   52.8909 H       1  ZINC000822449555    0.0600
     37 H37       -11.3483    1.5157   51.5614 H       1  ZINC000822449555    0.1000
     38 H38       -11.1753   -0.2375   51.8208 H       1  ZINC000822449555    0.0600
     39 H39        -9.1827   -0.9216   52.6923 H       1  ZINC000822449555    0.1400
     40 H40        -6.7447   -0.6132   52.3420 H       1  ZINC000822449555    0.1500
     41 H41        -4.8312    1.6479   53.5109 H       1  ZINC000822449555    0.4100
     42 H42        -3.1075    2.6402   53.3945 H       1  ZINC000822449555    0.1600
     43 H43        -0.6889    3.0076   52.9842 H       1  ZINC000822449555    0.1600
     44 H44         3.4887    3.4595   51.3102 H       1  ZINC000822449555    0.4800
     45 H45        -3.5457    1.7273   49.2200 H       1  ZINC000822449555    0.1700
@<TRIPOS>BOND
     1     1     2    1
     2     1    28    1
     3     1    29    1
     4     1    30    1
     5     2    13   ar
     6     2     3   ar
     7     3     4   ar
     8     4     5    1
     9     4    11   ar
    10     5    10    1
    11     5     6    1
    12     6     7    1
    13     6    31    1
    14     6    32    1
    15     7     8    1
    16     7    33    1
    17     7    34    1
    18     8     9    1
    19     9    10    1
    20     9    35    1
    21     9    36    1
    22    10    37    1
    23    10    38    1
    24    11    12   ar
    25    11    39    1
    26    12    13   ar
    27    12    40    1
    28    13    14    1
    29    14    15   am
    30    14    41    1
    31    15    16    2
    32    15    17    1
    33    17    27   ar
    34    17    18   ar
    35    18    19   ar
    36    18    42    1
    37    19    20   ar
    38    19    43    1
    39    20    21    1
    40    20    26   ar
    41    21    25    1
    42    21    22    2
    43    22    23    1
    44    23    24    1
    45    23    44    1
    46    24    25    2
    47    26    27   ar
    48    27    45    1
@<TRIPOS>SUBSTRUCTURE
     1 ZINC000822449555        1 TEMP              0 ****  ****    0 ROOT


##########                                Name:    ZINC001011267435
##########                DOCK_Rotatable_Bonds:                   7
##########                         Heavy_Atoms:                  24
##########                    Molecular_Weight:             331.458
##########                DOCK_Rotatable_Bonds:                   7
##########                       Formal_Charge:        -4.47035e-08
##########                     HBond_Acceptors:                   5
##########                        HBond_Donors:                   0
##########                         Heavy_Atoms:                  24
##########                          Grid_Score:          -29.495407
##########                     Grid_vdw_energy:          -28.805414
##########                      Grid_es_energy:           -0.689993
##########           Internal_energy_repulsive:           40.050213

@<TRIPOS>MOLECULE
ZINC001011267435
 53 54 1 0 0
SMALL
USER_CHARGES


@<TRIPOS>ATOM
      1 C1        -12.9112   -1.3952   55.9334 C.3     1  ZINC001011267435   -0.1500
      2 C2        -13.1407   -0.1249   56.7546 C.3     1  ZINC001011267435   -0.1200
      3 C3        -11.8445    0.6859   56.8128 C.3     1  ZINC001011267435   -0.0700
      4 C4        -11.4137    1.0454   55.4142 C.ar    1  ZINC001011267435    0.1300
      5 C5        -10.4613    0.2753   54.7757 C.ar    1  ZINC001011267435   -0.1200
      6 C6        -10.0699    0.6194   53.4779 C.ar    1  ZINC001011267435   -0.0800
      7 C7         -9.0524   -0.1771   52.7533 C.2     1  ZINC001011267435    0.5600
      8 O8         -9.3808   -1.1829   52.1555 O.2     1  ZINC001011267435   -0.5200
      9 N9         -7.7625    0.2138   52.7570 N.am    1  ZINC001011267435   -0.6100
     10 C10        -6.7436   -0.5632   52.0375 C.3     1  ZINC001011267435    0.0700
     11 C11        -6.0173    0.3684   51.0592 C.3     1  ZINC001011267435    0.1000
     12 N12        -5.6047    1.5794   51.7825 N.am    1  ZINC001011267435   -0.6200
     13 C13        -4.3150    1.9707   51.7855 C.2     1  ZINC001011267435    0.5300
     14 O14        -3.4830    1.3217   51.1876 O.2     1  ZINC001011267435   -0.5300
     15 C15        -3.9068    3.2147   52.5316 C.3     1  ZINC001011267435   -0.1100
     16 H16        -4.3583    3.2080   53.5236 H       1  ZINC001011267435    0.0900
     17 C17        -4.3822    4.4495   51.7632 C.3     1  ZINC001011267435   -0.1500
     18 C18        -2.3831    3.2525   52.6650 C.3     1  ZINC001011267435   -0.0800
     19 C19        -1.7773    3.8940   51.4150 C.3     1  ZINC001011267435   -0.1500
     20 C20        -1.9993    4.0746   53.8970 C.3     1  ZINC001011267435   -0.1500
     21 C21        -6.6238    2.3564   52.5021 C.3     1  ZINC001011267435    0.0900
     22 C22        -7.3510    1.4279   53.4756 C.3     1  ZINC001011267435    0.1000
     23 C23       -10.6658    1.7354   52.8833 C.ar    1  ZINC001011267435   -0.1600
     24 C24       -11.6106    2.4494   53.5952 C.ar    1  ZINC001011267435    0.1100
     25 N25       -11.9547    2.0875   54.8148 N.ar    1  ZINC001011267435   -0.4600
     26 H26       -12.6064   -1.1243   54.9226 H       1  ZINC001011267435    0.0600
     27 H27       -12.1291   -1.9935   56.4007 H       1  ZINC001011267435    0.0500
     28 H28       -13.8347   -1.9728   55.8920 H       1  ZINC001011267435    0.0600
     29 H29       -13.9228    0.4735   56.2874 H       1  ZINC001011267435    0.0700
     30 H30       -13.4455   -0.3958   57.7655 H       1  ZINC001011267435    0.0600
     31 H31       -12.0115    1.5971   57.3872 H       1  ZINC001011267435    0.0800
     32 H32       -11.0658    0.0922   57.2915 H       1  ZINC001011267435    0.0900
     33 H33       -10.0252   -0.5794   55.2712 H       1  ZINC001011267435    0.1400
     34 H34        -6.0282   -0.9760   52.7489 H       1  ZINC001011267435    0.0800
     35 H35        -7.2224   -1.3719   51.4854 H       1  ZINC001011267435    0.1100
     36 H36        -5.1378   -0.1358   50.6585 H       1  ZINC001011267435    0.1100
     37 H37        -6.6893    0.6397   50.2451 H       1  ZINC001011267435    0.0700
     38 H38        -4.0160    5.3488   52.2583 H       1  ZINC001011267435    0.0800
     39 H39        -3.9975    4.4135   50.7440 H       1  ZINC001011267435    0.0600
     40 H40        -5.4718    4.4656   51.7398 H       1  ZINC001011267435    0.0600
     41 H41        -2.0025    2.2369   52.7729 H       1  ZINC001011267435    0.0800
     42 H42        -0.6918    3.9210   51.5101 H       1  ZINC001011267435    0.0600
     43 H43        -2.0508    3.3084   50.5373 H       1  ZINC001011267435    0.0600
     44 H44        -2.1580    4.9097   51.3071 H       1  ZINC001011267435    0.0600
     45 H45        -2.4308    3.6176   54.7875 H       1  ZINC001011267435    0.0600
     46 H46        -0.9138    4.1016   53.9921 H       1  ZINC001011267435    0.0600
     47 H47        -2.3799    5.0903   53.7891 H       1  ZINC001011267435    0.0500
     48 H48        -6.1449    3.1650   53.0542 H       1  ZINC001011267435    0.1000
     49 H49        -7.3390    2.7691   51.7906 H       1  ZINC001011267435    0.0800
     50 H50        -8.2300    1.9333   53.8757 H       1  ZINC001011267435    0.1100
     51 H51        -6.6805    1.1547   54.2905 H       1  ZINC001011267435    0.0800
     52 H52       -10.3914    2.0353   51.8826 H       1  ZINC001011267435    0.1500
     53 H53       -12.0763    3.3133   53.1445 H       1  ZINC001011267435    0.1700
@<TRIPOS>BOND
     1     1     2    1
     2     1    26    1
     3     1    27    1
     4     1    28    1
     5     2     3    1
     6     2    29    1
     7     2    30    1
     8     3     4    1
     9     3    31    1
    10     3    32    1
    11     4    25   ar
    12     4     5   ar
    13     5     6   ar
    14     5    33    1
    15     6     7    1
    16     6    23   ar
    17     7     8    2
    18     7     9   am
    19     9    22    1
    20     9    10    1
    21    10    11    1
    22    10    34    1
    23    10    35    1
    24    11    12    1
    25    11    36    1
    26    11    37    1
    27    12    13   am
    28    12    21    1
    29    13    14    2
    30    13    15    1
    31    15    16    1
    32    15    17    1
    33    15    18    1
    34    17    38    1
    35    17    39    1
    36    17    40    1
    37    18    19    1
    38    18    20    1
    39    18    41    1
    40    19    42    1
    41    19    43    1
    42    19    44    1
    43    20    45    1
    44    20    46    1
    45    20    47    1
    46    21    22    1
    47    21    48    1
    48    21    49    1
    49    22    50    1
    50    22    51    1
    51    23    24   ar
    52    23    52    1
    53    24    25   ar
    54    24    53    1
@<TRIPOS>SUBSTRUCTURE
     1 ZINC001011267435        1 TEMP              0 ****  ****    0 ROOT


##########                                Name:    ZINC001401207732
##########                DOCK_Rotatable_Bonds:                   8
##########                         Heavy_Atoms:                  23
##########                    Molecular_Weight:             337.446
##########                DOCK_Rotatable_Bonds:                   8
##########                       Formal_Charge:          -0.0199995
##########                     HBond_Acceptors:                   8
##########                        HBond_Donors:                   1
##########                         Heavy_Atoms:                  23
##########                          Grid_Score:          -29.472651
##########                     Grid_vdw_energy:          -29.236067
##########                      Grid_es_energy:           -0.236584
##########           Internal_energy_repulsive:           14.436390

@<TRIPOS>MOLECULE
ZINC001401207732
 46 47 1 0 0
SMALL
USER_CHARGES


@<TRIPOS>ATOM
      1 C1         -4.3633    3.5180   56.5654 C.3     1  ZINC001401207732   -0.0900
      2 C2         -3.3650    4.2810   55.7333 C.2     1  ZINC001401207732    0.1500
      3 C3         -3.4697    4.4047   54.3864 C.2     1  ZINC001401207732   -0.3000
      4 C4         -4.5299    3.8385   53.5457 C.2     1  ZINC001401207732    0.6100
      5 O5         -5.6889    4.1614   53.7283 O.2     1  ZINC001401207732   -0.5200
      6 N6         -4.2205    2.9607   52.5710 N.am    1  ZINC001401207732   -0.5900
      7 C7         -2.8252    2.5721   52.3512 C.3     1  ZINC001401207732    0.0700
      8 C8         -5.2794    2.3952   51.7313 C.3     1  ZINC001401207732    0.1400
      9 H9         -6.2429    2.5272   52.2236 H       1  ZINC001401207732    0.1100
     10 C10        -5.2953    3.1112   50.3792 C.3     1  ZINC001401207732   -0.1600
     11 C11        -5.0172    0.9033   51.5154 C.3     1  ZINC001401207732    0.0500
     12 N12        -6.2968    0.1985   51.3618 N.3     1  ZINC001401207732   -0.6800
     13 C13        -6.7662   -0.3272   52.6508 C.3     1  ZINC001401207732    0.1500
     14 C14        -8.2726   -0.2996   52.6860 C.2     1  ZINC001401207732    0.1800
     15 N15        -9.0286    0.7403   52.9441 N.2     1  ZINC001401207732   -0.4800
     16 C16       -10.2954    0.2955   52.8640 C.2     1  ZINC001401207732    0.1800
     17 C17       -11.5430    1.1128   53.0797 C.3     1  ZINC001401207732   -0.0100
     18 C18       -12.7474    0.3672   52.5016 C.3     1  ZINC001401207732   -0.1500
     19 C19       -11.7532    1.3368   54.5785 C.3     1  ZINC001401207732   -0.1500
     20 N20       -10.2459   -0.9687   52.5669 N.2     1  ZINC001401207732   -0.3800
     21 O21        -9.0931   -1.3287   52.4546 O.3     1  ZINC001401207732    0.0900
     22 S22        -2.0994    5.3611   53.8270 S.3     1  ZINC001401207732    0.1800
     23 C23        -1.5339    5.5078   55.4336 C.2     1  ZINC001401207732    0.0100
     24 N24        -2.3219    4.8824   56.2480 N.2     1  ZINC001401207732   -0.4800
     25 H25        -4.0504    2.4769   56.6443 H       1  ZINC001401207732    0.0800
     26 H26        -4.4175    3.9576   57.5614 H       1  ZINC001401207732    0.0800
     27 H27        -5.3441    3.5679   56.0924 H       1  ZINC001401207732    0.1000
     28 H28        -2.3378    3.3117   51.7158 H       1  ZINC001401207732    0.0600
     29 H29        -2.3077    2.5182   53.3089 H       1  ZINC001401207732    0.0800
     30 H30        -2.7919    1.5971   51.8649 H       1  ZINC001401207732    0.0900
     31 H31        -6.0832    2.6903   49.7545 H       1  ZINC001401207732    0.0700
     32 H32        -5.4822    4.1740   50.5331 H       1  ZINC001401207732    0.0700
     33 H33        -4.3318    2.9792   49.8869 H       1  ZINC001401207732    0.0600
     34 H34        -4.4814    0.5006   52.3750 H       1  ZINC001401207732    0.0800
     35 H35        -4.4167    0.7664   50.6162 H       1  ZINC001401207732    0.0500
     36 H36        -6.2239   -0.5380   50.6760 H       1  ZINC001401207732    0.3600
     37 H37        -6.3725    0.2887   53.4594 H       1  ZINC001401207732    0.1100
     38 H38        -6.4186   -1.3530   52.7731 H       1  ZINC001401207732    0.0800
     39 H39       -11.4375    2.0757   52.5797 H       1  ZINC001401207732    0.1000
     40 H40       -13.6498    0.9584   52.6575 H       1  ZINC001401207732    0.0700
     41 H41       -12.5977    0.2077   51.4338 H       1  ZINC001401207732    0.0600
     42 H42       -12.8530   -0.5956   53.0015 H       1  ZINC001401207732    0.0600
     43 H43       -10.8952    1.8679   54.9904 H       1  ZINC001401207732    0.0600
     44 H44       -12.6555    1.9280   54.7345 H       1  ZINC001401207732    0.0700
     45 H45       -11.8587    0.3740   55.0785 H       1  ZINC001401207732    0.0600
     46 H46        -0.6426    6.0425   55.7270 H       1  ZINC001401207732    0.2000
@<TRIPOS>BOND
     1     1     2    1
     2     1    25    1
     3     1    26    1
     4     1    27    1
     5     2    24    1
     6     2     3    2
     7     3     4    1
     8     3    22    1
     9     4     5    2
    10     4     6   am
    11     6     7    1
    12     6     8    1
    13     7    28    1
    14     7    29    1
    15     7    30    1
    16     8     9    1
    17     8    10    1
    18     8    11    1
    19    10    31    1
    20    10    32    1
    21    10    33    1
    22    11    12    1
    23    11    34    1
    24    11    35    1
    25    12    13    1
    26    12    36    1
    27    13    14    1
    28    13    37    1
    29    13    38    1
    30    14    21    1
    31    14    15    2
    32    15    16    1
    33    16    17    1
    34    16    20    2
    35    17    18    1
    36    17    19    1
    37    17    39    1
    38    18    40    1
    39    18    41    1
    40    18    42    1
    41    19    43    1
    42    19    44    1
    43    19    45    1
    44    20    21    1
    45    22    23    1
    46    23    24    2
    47    23    46    1
@<TRIPOS>SUBSTRUCTURE
     1 ZINC001401207732        1 TEMP              0 ****  ****    0 ROOT


##########                                Name:    ZINC000811540126
##########                DOCK_Rotatable_Bonds:                   7
##########                         Heavy_Atoms:                  21
##########                    Molecular_Weight:             397.212
##########                DOCK_Rotatable_Bonds:                   7
##########                       Formal_Charge:           0.0100001
##########                     HBond_Acceptors:                   4
##########                        HBond_Donors:                   3
##########                         Heavy_Atoms:                  21
##########                          Grid_Score:          -29.470158
##########                     Grid_vdw_energy:          -27.622196
##########                      Grid_es_energy:           -1.847962
##########           Internal_energy_repulsive:           13.089024

@<TRIPOS>MOLECULE
ZINC000811540126
 37 38 1 0 0
SMALL
USER_CHARGES


@<TRIPOS>ATOM
      1 C1         -7.1072    2.4517   51.6937 C.3     1  ZINC000811540126   -0.1600
      2 C2         -6.1733    1.2463   51.8195 C.3     1  ZINC000811540126    0.1200
      3 H3         -6.2138    0.6580   50.9028 H       1  ZINC000811540126    0.1000
      4 N4         -4.8020    1.7119   52.0408 N.am    1  ZINC000811540126   -0.7200
      5 C5         -4.0899    2.2217   51.0163 C.2     1  ZINC000811540126    0.5700
      6 O6         -4.5851    2.2937   49.9082 O.2     1  ZINC000811540126   -0.5100
      7 C7         -2.7096    2.6923   51.2395 C.ar    1  ZINC000811540126   -0.1600
      8 C8         -2.4397    3.6275   52.2412 C.ar    1  ZINC000811540126   -0.0400
      9 C9         -1.1475    4.0632   52.4446 C.ar    1  ZINC000811540126   -0.1200
     10 I10        -0.7442    5.4661   53.9474 I       1  ZINC000811540126   -0.0300
     11 C11        -0.1144    3.5771   51.6597 C.ar    1  ZINC000811540126   -0.0400
     12 C12        -0.3679    2.6525   50.6658 C.ar    1  ZINC000811540126   -0.1500
     13 C13        -1.6606    2.1991   50.4513 C.ar    1  ZINC000811540126    0.1900
     14 O14        -1.9108    1.2905   49.4755 O.3     1  ZINC000811540126   -0.4700
     15 C15        -6.6147    0.3804   53.0012 C.3     1  ZINC000811540126    0.1400
     16 H16        -6.1925    0.7808   53.9228 H       1  ZINC000811540126    0.1300
     17 O17        -6.1546   -0.9587   52.8087 O.3     1  ZINC000811540126   -0.5400
     18 C18        -8.1190    0.3862   53.0939 C.ar    1  ZINC000811540126   -0.1200
     19 C19        -8.7562    1.2811   53.9328 C.ar    1  ZINC000811540126   -0.1100
     20 C20       -10.1360    1.2864   54.0178 C.ar    1  ZINC000811540126   -0.1100
     21 C21       -10.8784    0.3970   53.2636 C.ar    1  ZINC000811540126   -0.1200
     22 C22       -10.2410   -0.4974   52.4241 C.ar    1  ZINC000811540126   -0.1100
     23 C23        -8.8615   -0.4997   52.3358 C.ar    1  ZINC000811540126   -0.1100
     24 H24        -6.7927    3.0687   50.8520 H       1  ZINC000811540126    0.0600
     25 H25        -8.1274    2.1052   51.5292 H       1  ZINC000811540126    0.0700
     26 H26        -7.0667    3.0400   52.6105 H       1  ZINC000811540126    0.0700
     27 H27        -4.4066    1.6534   52.9246 H       1  ZINC000811540126    0.3900
     28 H28        -3.2421    4.0091   52.8552 H       1  ZINC000811540126    0.1300
     29 H29         0.8949    3.9234   51.8259 H       1  ZINC000811540126    0.1400
     30 H30         0.4426    2.2784   50.0578 H       1  ZINC000811540126    0.1500
     31 H31        -1.6962    0.3801   49.7212 H       1  ZINC000811540126    0.4000
     32 H32        -6.7627   -1.5146   52.3024 H       1  ZINC000811540126    0.3700
     33 H33        -8.1763    1.9759   54.5220 H       1  ZINC000811540126    0.1100
     34 H34       -10.6339    1.9851   54.6738 H       1  ZINC000811540126    0.1200
     35 H35       -11.9563    0.4006   53.3307 H       1  ZINC000811540126    0.1200
     36 H36       -10.8211   -1.1924   51.8351 H       1  ZINC000811540126    0.1300
     37 H37        -8.3636   -1.1984   51.6799 H       1  ZINC000811540126    0.1200
@<TRIPOS>BOND
     1     1     2    1
     2     1    24    1
     3     1    25    1
     4     1    26    1
     5     2     3    1
     6     2     4    1
     7     2    15    1
     8     4     5   am
     9     4    27    1
    10     5     6    2
    11     5     7    1
    12     7    13   ar
    13     7     8   ar
    14     8     9   ar
    15     8    28    1
    16     9    10    1
    17     9    11   ar
    18    11    12   ar
    19    11    29    1
    20    12    13   ar
    21    12    30    1
    22    13    14    1
    23    14    31    1
    24    15    16    1
    25    15    17    1
    26    15    18    1
    27    17    32    1
    28    18    23   ar
    29    18    19   ar
    30    19    20   ar
    31    19    33    1
    32    20    21   ar
    33    20    34    1
    34    21    22   ar
    35    21    35    1
    36    22    23   ar
    37    22    36    1
    38    23    37    1
@<TRIPOS>SUBSTRUCTURE
     1 ZINC000811540126        1 TEMP              0 ****  ****    0 ROOT


##########                                Name:    ZINC001312809190
##########                DOCK_Rotatable_Bonds:                   6
##########                         Heavy_Atoms:                  29
##########                    Molecular_Weight:             395.501
##########                DOCK_Rotatable_Bonds:                   6
##########                       Formal_Charge:           0.0199995
##########                     HBond_Acceptors:                   6
##########                        HBond_Donors:                   1
##########                         Heavy_Atoms:                  29
##########                          Grid_Score:          -29.443497
##########                     Grid_vdw_energy:          -27.847889
##########                      Grid_es_energy:           -1.595607
##########           Internal_energy_repulsive:           34.251060

@<TRIPOS>MOLECULE
ZINC001312809190
 58 61 1 0 0
SMALL
USER_CHARGES


@<TRIPOS>ATOM
      1 C1         -1.2660    3.1118   64.0688 C.3     1  ZINC001312809190    0.0300
      2 O2         -0.3238    4.1840   63.9989 O.3     1  ZINC001312809190   -0.3200
      3 C3          0.4087    4.2881   62.8589 C.ar    1  ZINC001312809190    0.1300
      4 C4          1.3426    5.3046   62.7236 C.ar    1  ZINC001312809190   -0.2100
      5 C5          2.0865    5.4080   61.5639 C.ar    1  ZINC001312809190   -0.0800
      6 C6          1.9002    4.4997   60.5386 C.ar    1  ZINC001312809190   -0.1300
      7 C7          0.9693    3.4856   60.6708 C.ar    1  ZINC001312809190   -0.0500
      8 C8          0.7685    2.4973   59.5509 C.3     1  ZINC001312809190    0.1200
      9 H9          0.4573    1.5380   59.9644 H       1  ZINC001312809190    0.0500
     10 C10         2.0811    2.3209   58.7849 C.3     1  ZINC001312809190   -0.1400
     11 N11        -0.2683    2.9963   58.6376 N.3     1  ZINC001312809190   -0.5300
     12 C12        -0.5640    2.0114   57.5886 C.3     1  ZINC001312809190    0.0300
     13 C13        -1.7686    2.4880   56.7700 C.3     1  ZINC001312809190    0.1400
     14 N14        -1.4950    3.8495   56.2855 N.am    1  ZINC001312809190   -0.6300
     15 C15        -1.6404    4.1624   54.9827 C.2     1  ZINC001312809190    0.7100
     16 O16        -1.4098    5.2931   54.5997 O.2     1  ZINC001312809190   -0.5800
     17 N17        -2.0414    3.2220   54.1044 N.am    1  ZINC001312809190   -0.7300
     18 C18        -2.1994    3.5621   52.6883 C.3     1  ZINC001312809190    0.1800
     19 H19        -2.3795    4.6300   52.5639 H       1  ZINC001312809190    0.1200
     20 C20        -0.9909    3.1193   51.8864 C.ar    1  ZINC001312809190   -0.1900
     21 C21         0.3623    3.2506   52.1047 C.ar    1  ZINC001312809190   -0.0500
     22 C22         1.2635    2.7335   51.1906 C.ar    1  ZINC001312809190   -0.1500
     23 C23         0.8000    2.0865   50.0603 C.ar    1  ZINC001312809190   -0.0800
     24 C24        -0.5555    1.9569   49.8378 C.ar    1  ZINC001312809190   -0.1400
     25 C25        -1.4689    2.4773   50.7509 C.ar    1  ZINC001312809190    0.1100
     26 O26        -2.8300    2.4782   50.7204 O.3     1  ZINC001312809190   -0.2900
     27 C27        -3.3341    2.7314   52.0435 C.3     1  ZINC001312809190    0.0800
     28 H28        -3.4839    1.7973   52.5849 H       1  ZINC001312809190    0.0900
     29 C29        -4.6344    3.5352   51.9834 C.3     1  ZINC001312809190   -0.1500
     30 C30        -1.0591    4.8606   57.2607 C.3     1  ZINC001312809190    0.1200
     31 C31         0.1175    4.2906   58.0600 C.3     1  ZINC001312809190    0.0400
     32 C32         0.2277    3.3742   61.8307 C.ar    1  ZINC001312809190   -0.1500
     33 H33        -1.7820    3.1437   65.0284 H       1  ZINC001312809190    0.1000
     34 H34        -1.9921    3.2130   63.2622 H       1  ZINC001312809190    0.0600
     35 H35        -0.7424    2.1610   63.9692 H       1  ZINC001312809190    0.0600
     36 H36         1.4880    6.0150   63.5240 H       1  ZINC001312809190    0.1300
     37 H37         2.8137    6.1994   61.4581 H       1  ZINC001312809190    0.1300
     38 H38         2.4823    4.5823   59.6327 H       1  ZINC001312809190    0.1300
     39 H39         2.3922    3.2803   58.3713 H       1  ZINC001312809190    0.0700
     40 H40         2.8504    1.9508   59.4625 H       1  ZINC001312809190    0.0600
     41 H41         1.9357    1.6061   57.9748 H       1  ZINC001312809190    0.0600
     42 H42         0.3015    1.9059   56.9343 H       1  ZINC001312809190    0.0400
     43 H43        -0.7933    1.0494   58.0469 H       1  ZINC001312809190    0.1000
     44 H44        -1.9215    1.8212   55.9214 H       1  ZINC001312809190    0.1000
     45 H45        -2.6589    2.4949   57.3988 H       1  ZINC001312809190    0.0700
     46 H46        -2.2252    2.3199   54.4100 H       1  ZINC001312809190    0.4000
     47 H47         0.7201    3.7572   52.9889 H       1  ZINC001312809190    0.1200
     48 H48         2.3254    2.8355   51.3595 H       1  ZINC001312809190    0.1300
     49 H49         1.5025    1.6805   49.3476 H       1  ZINC001312809190    0.1300
     50 H50        -0.9093    1.4503   48.9521 H       1  ZINC001312809190    0.1300
     51 H51        -5.3906    2.9635   51.4454 H       1  ZINC001312809190    0.0800
     52 H52        -4.9838    3.7373   52.9960 H       1  ZINC001312809190    0.0800
     53 H53        -4.4554    4.4778   51.4660 H       1  ZINC001312809190    0.0700
     54 H54        -0.7431    5.7625   56.7365 H       1  ZINC001312809190    0.0800
     55 H55        -1.8813    5.0956   57.9367 H       1  ZINC001312809190    0.0800
     56 H56         0.3823    4.9816   58.8602 H       1  ZINC001312809190    0.0900
     57 H57         0.9735    4.1533   57.3992 H       1  ZINC001312809190    0.0400
     58 H58        -0.4989    2.5818   61.9336 H       1  ZINC001312809190    0.1300
@<TRIPOS>BOND
     1     1     2    1
     2     1    33    1
     3     1    34    1
     4     1    35    1
     5     2     3    1
     6     3    32   ar
     7     3     4   ar
     8     4     5   ar
     9     4    36    1
    10     5     6   ar
    11     5    37    1
    12     6     7   ar
    13     6    38    1
    14     7     8    1
    15     7    32   ar
    16     8     9    1
    17     8    10    1
    18     8    11    1
    19    10    39    1
    20    10    40    1
    21    10    41    1
    22    11    31    1
    23    11    12    1
    24    12    13    1
    25    12    42    1
    26    12    43    1
    27    13    14    1
    28    13    44    1
    29    13    45    1
    30    14    15   am
    31    14    30    1
    32    15    16    2
    33    15    17   am
    34    17    18    1
    35    17    46    1
    36    18    19    1
    37    18    27    1
    38    18    20    1
    39    20    25   ar
    40    20    21   ar
    41    21    22   ar
    42    21    47    1
    43    22    23   ar
    44    22    48    1
    45    23    24   ar
    46    23    49    1
    47    24    25   ar
    48    24    50    1
    49    25    26    1
    50    26    27    1
    51    27    28    1
    52    27    29    1
    53    29    51    1
    54    29    52    1
    55    29    53    1
    56    30    31    1
    57    30    54    1
    58    30    55    1
    59    31    56    1
    60    31    57    1
    61    32    58    1
@<TRIPOS>SUBSTRUCTURE
     1 ZINC001312809190        1 TEMP              0 ****  ****    0 ROOT


##########                                Name:    ZINC000654672208
##########                DOCK_Rotatable_Bonds:                   5
##########                         Heavy_Atoms:                  25
##########                    Molecular_Weight:             365.497
##########                DOCK_Rotatable_Bonds:                   5
##########                       Formal_Charge:           0.0100001
##########                     HBond_Acceptors:                   7
##########                        HBond_Donors:                   1
##########                         Heavy_Atoms:                  25
##########                          Grid_Score:          -29.393246
##########                     Grid_vdw_energy:          -28.321058
##########                      Grid_es_energy:           -1.072186
##########           Internal_energy_repulsive:           15.857455

@<TRIPOS>MOLECULE
ZINC000654672208
 52 54 1 0 0
SMALL
USER_CHARGES


@<TRIPOS>ATOM
      1 C1        -11.4764    0.2574   52.5721 C.3     1  ZINC000654672208   -0.1100
      2 C2        -11.6928   -0.4996   53.8570 C.ar    1  ZINC000654672208   -0.1300
      3 C3        -10.6743   -1.2572   54.4028 C.ar    1  ZINC000654672208    0.1000
      4 N4        -10.8561   -1.9221   55.5272 N.ar    1  ZINC000654672208   -0.4700
      5 C5        -12.0059   -1.8926   56.1720 C.ar    1  ZINC000654672208    0.1200
      6 C6        -12.1613   -2.6705   57.4533 C.3     1  ZINC000654672208   -0.0900
      7 C7        -10.7952   -2.8264   58.1242 C.3     1  ZINC000654672208    0.1500
      8 N8        -10.2644   -1.5040   58.4643 N.am    1  ZINC000654672208   -0.7500
      9 C9        -10.7165   -0.8569   59.5567 C.2     1  ZINC000654672208    0.7100
     10 O10       -11.5651   -1.3707   60.2599 O.2     1  ZINC000654672208   -0.5800
     11 N11       -10.2282    0.3596   59.8696 N.am    1  ZINC000654672208   -0.6300
     12 C12        -9.2028    0.9928   59.0293 C.3     1  ZINC000654672208    0.1300
     13 C13        -8.0159    1.3863   59.9141 C.3     1  ZINC000654672208   -0.1400
     14 C14        -8.5114    2.2616   61.0669 C.3     1  ZINC000654672208   -0.1100
     15 C15        -9.5051    1.4665   61.9223 C.3     1  ZINC000654672208   -0.0600
     16 C16        -9.9853    2.3457   63.0816 C.3     1  ZINC000654672208   -0.1200
     17 C17       -10.3397    1.4334   64.2840 C.3     1  ZINC000654672208   -0.5800
     18 S18        -8.9448    0.2367   64.2455 S.o2    1  ZINC000654672208    2.3800
     19 O19        -7.7801    0.8441   64.7873 O.2     1  ZINC000654672208   -0.9300
     20 O20        -9.3838   -1.0234   64.7340 O.2     1  ZINC000654672208   -0.9300
     21 C21        -8.8173    0.1831   62.4187 C.3     1  ZINC000654672208   -0.5800
     22 C22       -10.7159    1.0793   61.0535 C.3     1  ZINC000654672208    0.1200
     23 C23       -13.0700   -1.1561   55.6866 C.ar    1  ZINC000654672208   -0.1200
     24 C24       -14.3805   -1.1275   56.4301 C.3     1  ZINC000654672208   -0.1200
     25 C25       -12.9150   -0.4401   54.5096 C.ar    1  ZINC000654672208   -0.0800
     26 H26       -11.0988    1.2549   52.7972 H       1  ZINC000654672208    0.0700
     27 H27       -10.7524   -0.2744   51.9546 H       1  ZINC000654672208    0.0700
     28 H28       -12.4213    0.3393   52.0350 H       1  ZINC000654672208    0.0700
     29 H29        -9.7183   -1.3058   53.9026 H       1  ZINC000654672208    0.1600
     30 H30       -12.8361   -2.1369   58.1228 H       1  ZINC000654672208    0.0900
     31 H31       -12.5723   -3.6556   57.2327 H       1  ZINC000654672208    0.0900
     32 H32       -10.9019   -3.4197   59.0324 H       1  ZINC000654672208    0.0700
     33 H33       -10.1099   -3.3282   57.4410 H       1  ZINC000654672208    0.0700
     34 H34        -9.5875   -1.0942   57.9033 H       1  ZINC000654672208    0.3900
     35 H35        -8.8717    0.2900   58.2647 H       1  ZINC000654672208    0.1000
     36 H36        -9.6168    1.8831   58.5559 H       1  ZINC000654672208    0.0700
     37 H37        -7.5474    0.4875   60.3152 H       1  ZINC000654672208    0.0700
     38 H38        -7.2890    1.9422   59.3217 H       1  ZINC000654672208    0.0800
     39 H39        -7.6647    2.5659   61.6821 H       1  ZINC000654672208    0.0800
     40 H40        -9.0049    3.1465   60.6650 H       1  ZINC000654672208    0.0800
     41 H41        -9.1942    3.0387   63.3681 H       1  ZINC000654672208    0.1000
     42 H42       -10.8679    2.9069   62.7747 H       1  ZINC000654672208    0.1000
     43 H43       -10.3463    1.9982   65.2162 H       1  ZINC000654672208    0.1400
     44 H44       -11.2932    0.9295   64.1261 H       1  ZINC000654672208    0.1400
     45 H45        -9.3323   -0.6953   62.0302 H       1  ZINC000654672208    0.1400
     46 H46        -7.7709    0.1737   62.1137 H       1  ZINC000654672208    0.1400
     47 H47       -11.2490    1.9794   60.7475 H       1  ZINC000654672208    0.0800
     48 H48       -11.3830    0.4327   61.6236 H       1  ZINC000654672208    0.0800
     49 H49       -14.3752   -0.3039   57.1442 H       1  ZINC000654672208    0.0800
     50 H50       -15.1972   -0.9888   55.7217 H       1  ZINC000654672208    0.0700
     51 H51       -14.5169   -2.0689   56.9622 H       1  ZINC000654672208    0.0700
     52 H52       -13.7290    0.1441   54.1067 H       1  ZINC000654672208    0.1300
@<TRIPOS>BOND
     1     1     2    1
     2     1    26    1
     3     1    27    1
     4     1    28    1
     5     2    25   ar
     6     2     3   ar
     7     3     4   ar
     8     3    29    1
     9     4     5   ar
    10     5     6    1
    11     5    23   ar
    12     6     7    1
    13     6    30    1
    14     6    31    1
    15     7     8    1
    16     7    32    1
    17     7    33    1
    18     8     9   am
    19     8    34    1
    20     9    10    2
    21     9    11   am
    22    11    22    1
    23    11    12    1
    24    12    13    1
    25    12    35    1
    26    12    36    1
    27    13    14    1
    28    13    37    1
    29    13    38    1
    30    14    15    1
    31    14    39    1
    32    14    40    1
    33    15    21    1
    34    15    16    1
    35    15    22    1
    36    16    17    1
    37    16    41    1
    38    16    42    1
    39    17    18    1
    40    17    43    1
    41    17    44    1
    42    18    19    2
    43    18    20    2
    44    18    21    1
    45    21    45    1
    46    21    46    1
    47    22    47    1
    48    22    48    1
    49    23    24    1
    50    23    25   ar
    51    24    49    1
    52    24    50    1
    53    24    51    1
    54    25    52    1
@<TRIPOS>SUBSTRUCTURE
     1 ZINC000654672208        1 TEMP              0 ****  ****    0 ROOT


##########                                Name:    ZINC000450219577
##########                DOCK_Rotatable_Bonds:                   8
##########                         Heavy_Atoms:                  26
##########                    Molecular_Weight:             353.421
##########                DOCK_Rotatable_Bonds:                   8
##########                       Formal_Charge:          -0.0199997
##########                     HBond_Acceptors:                   6
##########                        HBond_Donors:                   1
##########                         Heavy_Atoms:                  26
##########                          Grid_Score:          -29.393002
##########                     Grid_vdw_energy:          -29.887331
##########                      Grid_es_energy:            0.494330
##########           Internal_energy_repulsive:           36.044621

@<TRIPOS>MOLECULE
ZINC000450219577
 49 51 1 0 0
SMALL
USER_CHARGES


@<TRIPOS>ATOM
      1 C1        -13.3023    2.0862   52.1306 C.3     1  ZINC000450219577   -0.1800
      2 C2        -13.6782    0.6030   52.1351 C.3     1  ZINC000450219577    0.1200
      3 C3        -14.9193    0.3941   53.0051 C.3     1  ZINC000450219577   -0.1800
      4 C4        -13.9753    0.1480   50.7049 C.3     1  ZINC000450219577   -0.1400
      5 O5        -12.5751   -0.1741   52.6711 O.3     1  ZINC000450219577   -0.3400
      6 C6        -12.1840    0.1064   53.9241 C.2     1  ZINC000450219577    0.4700
      7 O7        -12.7524    0.9650   54.5563 O.2     1  ZINC000450219577   -0.5000
      8 C8        -11.0362   -0.6494   54.5423 C.3     1  ZINC000450219577    0.2000
      9 H9        -11.0321   -1.6733   54.1687 H       1  ZINC000450219577    0.1400
     10 N10        -9.7739    0.0045   54.1883 N.am    1  ZINC000450219577   -0.7100
     11 C11        -9.1644   -0.2926   53.0235 C.2     1  ZINC000450219577    0.5800
     12 O12        -9.6629   -1.1021   52.2659 O.2     1  ZINC000450219577   -0.5200
     13 C13        -7.8898    0.3658   52.6671 C.ar    1  ZINC000450219577   -0.2500
     14 C14        -7.6004    1.6611   53.1108 C.ar    1  ZINC000450219577    0.1900
     15 N15        -6.4487    2.2115   52.7690 N.ar    1  ZINC000450219577   -0.5100
     16 C16        -5.5798    1.5586   52.0221 C.ar    1  ZINC000450219577    0.3800
     17 C17        -4.2803    2.2297   51.6593 C.3     1  ZINC000450219577   -0.1100
     18 C18        -3.9270    2.3287   50.1739 C.3     1  ZINC000450219577   -0.1500
     19 C19        -4.3580    3.5794   50.9426 C.3     1  ZINC000450219577   -0.1500
     20 N20        -5.8118    0.3370   51.5831 N.ar    1  ZINC000450219577   -0.5200
     21 C21        -6.9358   -0.2907   51.8813 C.ar    1  ZINC000450219577    0.2200
     22 C22       -11.1922   -0.6621   56.0411 C.ar    1  ZINC000450219577   -0.1100
     23 C23       -10.7606    0.4166   56.7902 C.ar    1  ZINC000450219577   -0.1000
     24 C24       -10.9039    0.4050   58.1650 C.ar    1  ZINC000450219577   -0.1200
     25 C25       -11.4789   -0.6852   58.7908 C.ar    1  ZINC000450219577   -0.1100
     26 C26       -11.9113   -1.7635   58.0417 C.ar    1  ZINC000450219577   -0.1200
     27 C27       -11.7720   -1.7501   56.6665 C.ar    1  ZINC000450219577   -0.0800
     28 H28       -13.0907    2.4105   53.1495 H       1  ZINC000450219577    0.0800
     29 H29       -12.4182    2.2350   51.5108 H       1  ZINC000450219577    0.0600
     30 H30       -14.1304    2.6697   51.7282 H       1  ZINC000450219577    0.0700
     31 H31       -15.7474    0.9776   52.6027 H       1  ZINC000450219577    0.0700
     32 H32       -15.1872   -0.6625   53.0082 H       1  ZINC000450219577    0.0600
     33 H33       -14.7077    0.7184   54.0240 H       1  ZINC000450219577    0.0800
     34 H34       -13.0911    0.2967   50.0852 H       1  ZINC000450219577    0.0700
     35 H35       -14.2431   -0.9086   50.7082 H       1  ZINC000450219577    0.0700
     36 H36       -14.8035    0.7314   50.3026 H       1  ZINC000450219577    0.0800
     37 H37        -9.3766    0.6514   54.7922 H       1  ZINC000450219577    0.4100
     38 H38        -8.3071    2.2024   53.7224 H       1  ZINC000450219577    0.1700
     39 H39        -3.4613    2.0799   52.3628 H       1  ZINC000450219577    0.1300
     40 H40        -2.8753    2.2439   49.9000 H       1  ZINC000450219577    0.1000
     41 H41        -4.6345    1.9084   49.4592 H       1  ZINC000450219577    0.1100
     42 H42        -5.3492    3.9818   50.7337 H       1  ZINC000450219577    0.1000
     43 H43        -3.5901    4.3173   51.1745 H       1  ZINC000450219577    0.1100
     44 H44        -7.1187   -1.2912   51.5180 H       1  ZINC000450219577    0.1800
     45 H45       -10.3114    1.2684   56.3012 H       1  ZINC000450219577    0.1200
     46 H46       -10.5660    1.2475   58.7502 H       1  ZINC000450219577    0.1200
     47 H47       -11.5901   -0.6945   59.8650 H       1  ZINC000450219577    0.1300
     48 H48       -12.3603   -2.6154   58.5307 H       1  ZINC000450219577    0.1300
     49 H49       -12.1098   -2.5925   56.0812 H       1  ZINC000450219577    0.1300
@<TRIPOS>BOND
     1     1     2    1
     2     1    28    1
     3     1    29    1
     4     1    30    1
     5     2     3    1
     6     2     4    1
     7     2     5    1
     8     3    31    1
     9     3    32    1
    10     3    33    1
    11     4    34    1
    12     4    35    1
    13     4    36    1
    14     5     6    1
    15     6     7    2
    16     6     8    1
    17     8     9    1
    18     8    10    1
    19     8    22    1
    20    10    11   am
    21    10    37    1
    22    11    12    2
    23    11    13    1
    24    13    21   ar
    25    13    14   ar
    26    14    15   ar
    27    14    38    1
    28    15    16   ar
    29    16    17    1
    30    16    20   ar
    31    17    19    1
    32    17    18    1
    33    17    39    1
    34    18    19    1
    35    18    40    1
    36    18    41    1
    37    19    42    1
    38    19    43    1
    39    20    21   ar
    40    21    44    1
    41    22    27   ar
    42    22    23   ar
    43    23    24   ar
    44    23    45    1
    45    24    25   ar
    46    24    46    1
    47    25    26   ar
    48    25    47    1
    49    26    27   ar
    50    26    48    1
    51    27    49    1
@<TRIPOS>SUBSTRUCTURE
     1 ZINC000450219577        1 TEMP              0 ****  ****    0 ROOT


##########                                Name:    ZINC000186316242
##########                DOCK_Rotatable_Bonds:                   7
##########                         Heavy_Atoms:                  28
##########                    Molecular_Weight:             392.525
##########                DOCK_Rotatable_Bonds:                   7
##########                       Formal_Charge:         -0.00999981
##########                     HBond_Acceptors:                   6
##########                        HBond_Donors:                   0
##########                         Heavy_Atoms:                  28
##########                          Grid_Score:          -29.382080
##########                     Grid_vdw_energy:          -29.870930
##########                      Grid_es_energy:            0.488849
##########           Internal_energy_repulsive:           22.825285

@<TRIPOS>MOLECULE
ZINC000186316242
 52 55 1 0 0
SMALL
USER_CHARGES


@<TRIPOS>ATOM
      1 C1         -9.9405    3.7335   53.6666 C.3     1  ZINC000186316242   -0.1500
      2 C2         -9.3136    2.6153   54.5017 C.3     1  ZINC000186316242    0.1000
      3 N3         -7.8923    2.4944   54.1676 N.am    1  ZINC000186316242   -0.5900
      4 C4         -6.9571    2.7041   55.1151 C.2     1  ZINC000186316242    0.5900
      5 O5         -5.7772    2.6038   54.8377 O.2     1  ZINC000186316242   -0.5000
      6 C6         -7.3641    3.0549   56.4871 C.2     1  ZINC000186316242    0.0100
      7 C7         -7.7909    4.3034   56.8289 C.2     1  ZINC000186316242   -0.2100
      8 S8         -8.1717    4.3242   58.4960 S.3     1  ZINC000186316242    0.2000
      9 C9         -7.7280    2.6274   58.6382 C.2     1  ZINC000186316242    0.0700
     10 C10        -7.7852    1.8320   59.8840 C.ar    1  ZINC000186316242    0.1900
     11 C11        -7.9611    2.4759   61.1084 C.ar    1  ZINC000186316242   -0.1500
     12 C12        -8.0130    1.7178   62.2655 C.ar    1  ZINC000186316242   -0.0700
     13 C13        -7.8876    0.3399   62.1608 C.ar    1  ZINC000186316242   -0.1600
     14 C14        -7.7154   -0.2335   60.9136 C.ar    1  ZINC000186316242    0.1100
     15 N15        -7.6743    0.5097   59.8273 N.ar    1  ZINC000186316242   -0.4500
     16 N16        -7.3482    2.1795   57.4810 N.2     1  ZINC000186316242   -0.3900
     17 C17        -7.4876    2.1456   52.8035 C.3     1  ZINC000186316242    0.1400
     18 H18        -8.3632    2.0603   52.1599 H       1  ZINC000186316242    0.1000
     19 C19        -6.6901    0.8213   52.8024 C.3     1  ZINC000186316242   -0.1300
     20 C20        -5.5796    1.0864   51.7550 C.3     1  ZINC000186316242    0.0400
     21 N21        -5.2329    2.5128   51.9808 N.3     1  ZINC000186316242   -0.4900
     22 C22        -4.5633    3.0844   50.8049 C.3     1  ZINC000186316242    0.0800
     23 C23        -3.1113    2.6810   50.8082 C.ar    1  ZINC000186316242   -0.0700
     24 C24        -2.5453    2.1269   49.6753 C.ar    1  ZINC000186316242   -0.1000
     25 C25        -1.2134    1.7569   49.6784 C.ar    1  ZINC000186316242   -0.1200
     26 C26        -0.4474    1.9414   50.8141 C.ar    1  ZINC000186316242   -0.1200
     27 C27        -1.0131    2.4964   51.9467 C.ar    1  ZINC000186316242   -0.1200
     28 C28        -2.3439    2.8704   51.9424 C.ar    1  ZINC000186316242   -0.1100
     29 C29        -6.5162    3.2031   52.2472 C.3     1  ZINC000186316242    0.0400
     30 H30       -10.9979    3.8235   53.9152 H       1  ZINC000186316242    0.0700
     31 H31        -9.4352    4.6749   53.8821 H       1  ZINC000186316242    0.0500
     32 H32        -9.8350    3.4987   52.6074 H       1  ZINC000186316242    0.0400
     33 H33        -9.4190    2.8501   55.5608 H       1  ZINC000186316242    0.1200
     34 H34        -9.8188    1.6738   54.2862 H       1  ZINC000186316242    0.0700
     35 H35        -7.8751    5.1437   56.1557 H       1  ZINC000186316242    0.1900
     36 H36        -8.0549    3.5508   61.1533 H       1  ZINC000186316242    0.1400
     37 H37        -8.1479    2.1882   63.2281 H       1  ZINC000186316242    0.1400
     38 H38        -7.9236   -0.2793   63.0450 H       1  ZINC000186316242    0.1400
     39 H39        -7.6170   -1.3057   60.8292 H       1  ZINC000186316242    0.1600
     40 H40        -6.2567    0.6312   53.7844 H       1  ZINC000186316242    0.0900
     41 H41        -7.3230   -0.0100   52.4916 H       1  ZINC000186316242    0.0700
     42 H42        -4.7164    0.4468   51.9393 H       1  ZINC000186316242    0.0800
     43 H43        -5.9606    0.9383   50.7446 H       1  ZINC000186316242    0.0400
     44 H44        -5.0415    2.7135   49.8984 H       1  ZINC000186316242    0.0400
     45 H45        -4.6384    4.1714   50.8365 H       1  ZINC000186316242    0.0800
     46 H46        -3.1438    1.9827   48.7880 H       1  ZINC000186316242    0.1200
     47 H47        -0.7714    1.3233   48.7935 H       1  ZINC000186316242    0.1200
     48 H48         0.5931    1.6517   50.8168 H       1  ZINC000186316242    0.1200
     49 H49        -0.4147    2.6404   52.8342 H       1  ZINC000186316242    0.1200
     50 H50        -2.7859    3.3041   52.8272 H       1  ZINC000186316242    0.1200
     51 H51        -6.9111    3.6229   51.3220 H       1  ZINC000186316242    0.0500
     52 H52        -6.3671    3.9935   52.9828 H       1  ZINC000186316242    0.0800
@<TRIPOS>BOND
     1     1     2    1
     2     1    30    1
     3     1    31    1
     4     1    32    1
     5     2     3    1
     6     2    33    1
     7     2    34    1
     8     3     4   am
     9     3    17    1
    10     4     5    2
    11     4     6    1
    12     6    16    1
    13     6     7    2
    14     7     8    1
    15     7    35    1
    16     8     9    1
    17     9    10    1
    18     9    16    2
    19    10    15   ar
    20    10    11   ar
    21    11    12   ar
    22    11    36    1
    23    12    13   ar
    24    12    37    1
    25    13    14   ar
    26    13    38    1
    27    14    15   ar
    28    14    39    1
    29    17    18    1
    30    17    29    1
    31    17    19    1
    32    19    20    1
    33    19    40    1
    34    19    41    1
    35    20    21    1
    36    20    42    1
    37    20    43    1
    38    21    22    1
    39    21    29    1
    40    22    23    1
    41    22    44    1
    42    22    45    1
    43    23    28   ar
    44    23    24   ar
    45    24    25   ar
    46    24    46    1
    47    25    26   ar
    48    25    47    1
    49    26    27   ar
    50    26    48    1
    51    27    28   ar
    52    27    49    1
    53    28    50    1
    54    29    51    1
    55    29    52    1
@<TRIPOS>SUBSTRUCTURE
     1 ZINC000186316242        1 TEMP              0 ****  ****    0 ROOT


##########                                Name:    ZINC000807524472
##########                DOCK_Rotatable_Bonds:                   9
##########                         Heavy_Atoms:                  28
##########                    Molecular_Weight:             410.534
##########                DOCK_Rotatable_Bonds:                   9
##########                       Formal_Charge:           0.0200006
##########                     HBond_Acceptors:                   8
##########                        HBond_Donors:                   0
##########                         Heavy_Atoms:                  28
##########                          Grid_Score:          -29.381029
##########                     Grid_vdw_energy:          -28.717257
##########                      Grid_es_energy:           -0.663773
##########           Internal_energy_repulsive:           12.835391

@<TRIPOS>MOLECULE
ZINC000807524472
 58 60 1 0 0
SMALL
USER_CHARGES


@<TRIPOS>ATOM
      1 C1        -14.6626   -1.2792   48.3236 C.3     1  ZINC000807524472   -0.1500
      2 C2        -13.7089   -0.5508   49.2728 C.3     1  ZINC000807524472    0.0600
      3 O3        -14.4321   -0.0962   50.4184 O.3     1  ZINC000807524472   -0.3800
      4 C4        -13.6521    0.6850   51.3258 C.3     1  ZINC000807524472    0.0600
      5 C5        -12.6462   -0.2182   52.0421 C.3     1  ZINC000807524472    0.0700
      6 O6        -11.9021    0.5619   53.0147 O.3     1  ZINC000807524472   -0.3500
      7 C7        -10.8815   -0.0550   53.6423 C.2     1  ZINC000807524472    0.5000
      8 O8        -10.9855   -1.2206   53.9702 O.2     1  ZINC000807524472   -0.4600
      9 C9         -9.6401    0.6833   53.9308 C.ar    1  ZINC000807524472   -0.1200
     10 C10        -8.6381    0.7806   52.9613 C.ar    1  ZINC000807524472    0.0400
     11 C11        -7.4797    1.4731   53.2375 C.ar    1  ZINC000807524472   -0.7000
     12 S12        -6.2185    1.5945   52.0131 S.o2    1  ZINC000807524472    2.6900
     13 O13        -5.3992    0.4434   52.1653 O.2     1  ZINC000807524472   -0.9500
     14 O14        -6.8717    1.9280   50.7959 O.2     1  ZINC000807524472   -0.9500
     15 N15        -5.2745    2.8961   52.4090 N.am    1  ZINC000807524472   -0.9900
     16 C16        -3.8395    2.7268   52.6750 C.3     1  ZINC000807524472    0.1200
     17 C17        -3.0548    3.6916   51.7803 C.3     1  ZINC000807524472   -0.1400
     18 C18        -3.5706    5.1160   51.9973 C.3     1  ZINC000807524472   -0.1200
     19 C19        -5.0487    5.1900   51.6080 C.3     1  ZINC000807524472   -0.1400
     20 C20        -5.8548    4.2433   52.4949 C.3     1  ZINC000807524472    0.1200
     21 C21        -7.3010    2.0749   54.4730 C.ar    1  ZINC000807524472    0.0200
     22 C22        -8.2803    1.9879   55.4412 C.ar    1  ZINC000807524472   -0.1800
     23 C23        -9.4580    1.2990   55.1800 C.ar    1  ZINC000807524472    0.2000
     24 N24       -10.4451    1.2102   56.1522 N.3     1  ZINC000807524472   -0.4800
     25 C25        -9.9041    0.6318   57.4087 C.3     1  ZINC000807524472    0.0400
     26 C26       -10.9276    1.0880   58.4787 C.3     1  ZINC000807524472   -0.1200
     27 C27       -11.3025    2.5136   58.0127 C.3     1  ZINC000807524472   -0.1300
     28 C28       -10.9560    2.5506   56.5127 C.3     1  ZINC000807524472    0.0400
     29 H29       -15.4521   -0.5972   48.0078 H       1  ZINC000807524472    0.0600
     30 H30       -14.1110   -1.6260   47.4499 H       1  ZINC000807524472    0.0700
     31 H31       -15.1042   -2.1333   48.8370 H       1  ZINC000807524472    0.0700
     32 H32       -12.9195   -1.2329   49.5887 H       1  ZINC000807524472    0.0500
     33 H33       -13.2673    0.3033   48.7594 H       1  ZINC000807524472    0.0500
     34 H34       -13.1175    1.4576   50.7732 H       1  ZINC000807524472    0.0600
     35 H35       -14.3085    1.1520   52.0602 H       1  ZINC000807524472    0.0700
     36 H36       -13.1780   -1.0220   52.5513 H       1  ZINC000807524472    0.0900
     37 H37       -11.9564   -0.6435   51.3132 H       1  ZINC000807524472    0.0800
     38 H38        -8.7718    0.3132   51.9970 H       1  ZINC000807524472    0.1600
     39 H39        -3.6332    2.9497   53.7219 H       1  ZINC000807524472    0.0800
     40 H40        -3.5452    1.7011   52.4528 H       1  ZINC000807524472    0.0900
     41 H41        -1.9962    3.6451   52.0356 H       1  ZINC000807524472    0.0800
     42 H42        -3.1904    3.4108   50.7358 H       1  ZINC000807524472    0.0700
     43 H43        -3.4576    5.3871   53.0471 H       1  ZINC000807524472    0.0700
     44 H44        -2.9974    5.8078   51.3801 H       1  ZINC000807524472    0.0700
     45 H45        -5.4093    6.2101   51.7407 H       1  ZINC000807524472    0.0800
     46 H46        -5.1655    4.8952   50.5651 H       1  ZINC000807524472    0.0700
     47 H47        -6.8906    4.2186   52.1564 H       1  ZINC000807524472    0.0900
     48 H48        -5.8139    4.5871   53.5283 H       1  ZINC000807524472    0.0800
     49 H49        -6.3890    2.6154   54.6795 H       1  ZINC000807524472    0.1500
     50 H50        -8.1329    2.4595   56.4015 H       1  ZINC000807524472    0.1400
     51 H51        -9.8700   -0.4561   57.3481 H       1  ZINC000807524472    0.0900
     52 H52        -8.9156    1.0372   57.6245 H       1  ZINC000807524472    0.0500
     53 H53       -11.8032    0.4387   58.4764 H       1  ZINC000807524472    0.0800
     54 H54       -10.4677    1.1135   59.4665 H       1  ZINC000807524472    0.0800
     55 H55       -12.3679    2.6917   58.1593 H       1  ZINC000807524472    0.0800
     56 H56       -10.7161    3.2552   58.5549 H       1  ZINC000807524472    0.0700
     57 H57       -10.1890    3.3026   56.3273 H       1  ZINC000807524472    0.0500
     58 H58       -11.8495    2.7763   55.9307 H       1  ZINC000807524472    0.0900
@<TRIPOS>BOND
     1     1     2    1
     2     1    29    1
     3     1    30    1
     4     1    31    1
     5     2     3    1
     6     2    32    1
     7     2    33    1
     8     3     4    1
     9     4     5    1
    10     4    34    1
    11     4    35    1
    12     5     6    1
    13     5    36    1
    14     5    37    1
    15     6     7    1
    16     7     8    2
    17     7     9    1
    18     9    23   ar
    19     9    10   ar
    20    10    11   ar
    21    10    38    1
    22    11    12    1
    23    11    21   ar
    24    12    13    2
    25    12    14    2
    26    12    15   am
    27    15    20    1
    28    15    16    1
    29    16    17    1
    30    16    39    1
    31    16    40    1
    32    17    18    1
    33    17    41    1
    34    17    42    1
    35    18    19    1
    36    18    43    1
    37    18    44    1
    38    19    20    1
    39    19    45    1
    40    19    46    1
    41    20    47    1
    42    20    48    1
    43    21    22   ar
    44    21    49    1
    45    22    23   ar
    46    22    50    1
    47    23    24    1
    48    24    28    1
    49    24    25    1
    50    25    26    1
    51    25    51    1
    52    25    52    1
    53    26    27    1
    54    26    53    1
    55    26    54    1
    56    27    28    1
    57    27    55    1
    58    27    56    1
    59    28    57    1
    60    28    58    1
@<TRIPOS>SUBSTRUCTURE
     1 ZINC000807524472        1 TEMP              0 ****  ****    0 ROOT


##########                                Name:    ZINC000291574087
##########                DOCK_Rotatable_Bonds:                   8
##########                         Heavy_Atoms:                  23
##########                    Molecular_Weight:             387.249
##########                DOCK_Rotatable_Bonds:                   8
##########                       Formal_Charge:          -0.0400007
##########                     HBond_Acceptors:                   6
##########                        HBond_Donors:                   2
##########                         Heavy_Atoms:                  23
##########                          Grid_Score:          -29.370089
##########                     Grid_vdw_energy:          -29.306398
##########                      Grid_es_energy:           -0.063690
##########           Internal_energy_repulsive:           21.890495

@<TRIPOS>MOLECULE
ZINC000291574087
 43 44 1 0 0
SMALL
USER_CHARGES


@<TRIPOS>ATOM
      1 C1         -3.0706    2.2164   50.8621 C.3     1  ZINC000291574087    0.0200
      2 O2         -4.2366    2.9871   50.5648 O.3     1  ZINC000291574087   -0.3700
      3 C3         -5.3258    2.7631   51.4625 C.3     1  ZINC000291574087    0.1400
      4 C4         -4.9831    3.3451   52.8353 C.3     1  ZINC000291574087   -0.1500
      5 C5         -5.5773    1.2597   51.5941 C.3     1  ZINC000291574087    0.0900
      6 N6         -6.9613    1.0313   52.0165 N.am    1  ZINC000291574087   -0.6900
      7 C7         -7.3757   -0.2142   52.3226 C.2     1  ZINC000291574087    0.5100
      8 O8         -6.6026   -1.1466   52.2470 O.2     1  ZINC000291574087   -0.5100
      9 C9         -8.7861   -0.4467   52.7549 C.2     1  ZINC000291574087    0.5100
     10 O10        -9.4503   -1.3105   52.2201 O.2     1  ZINC000291574087   -0.4900
     11 N11        -9.3213    0.3025   53.7391 N.am    1  ZINC000291574087   -0.6400
     12 C12       -10.6422    0.0848   54.1440 C.ar    1  ZINC000291574087    0.1300
     13 C13       -10.9244   -0.8672   55.1143 C.ar    1  ZINC000291574087   -0.1000
     14 C14       -12.2301   -1.0800   55.5129 C.ar    1  ZINC000291574087   -0.0400
     15 C15       -12.5362   -2.1134   56.5661 C.3     1  ZINC000291574087   -0.1300
     16 C16       -13.2568   -0.3456   54.9469 C.ar    1  ZINC000291574087   -0.0900
     17 Br17      -15.0419   -0.6403   55.4973 Br      1  ZINC000291574087   -0.0300
     18 C18       -12.9805    0.6045   53.9794 C.ar    1  ZINC000291574087   -0.1000
     19 C19       -11.6758    0.8259   53.5794 C.ar    1  ZINC000291574087    0.0700
     20 F20       -11.4058    1.7533   52.6349 F       1  ZINC000291574087   -0.1300
     21 C21        -6.5830    3.4449   50.9189 C.3     1  ZINC000291574087   -0.1900
     22 C22        -7.3066    4.4298   51.8394 C.3     1  ZINC000291574087   -0.1700
     23 C23        -6.5079    4.9477   50.6415 C.3     1  ZINC000291574087   -0.1600
     24 H24        -2.2900    2.4436   50.1360 H       1  ZINC000291574087    0.0900
     25 H25        -2.7178    2.4626   51.8637 H       1  ZINC000291574087    0.0400
     26 H26        -3.3143    1.1551   50.8134 H       1  ZINC000291574087    0.0500
     27 H27        -4.8039    4.4162   52.7415 H       1  ZINC000291574087    0.0700
     28 H28        -5.8138    3.1743   53.5200 H       1  ZINC000291574087    0.0800
     29 H29        -4.0874    2.8594   53.2225 H       1  ZINC000291574087    0.0700
     30 H30        -5.4068    0.7771   50.6317 H       1  ZINC000291574087    0.0900
     31 H31        -4.8973    0.8411   52.3361 H       1  ZINC000291574087    0.0800
     32 H32        -7.5795    1.7764   52.0758 H       1  ZINC000291574087    0.4200
     33 H33        -8.7906    0.9927   54.1666 H       1  ZINC000291574087    0.4300
     34 H34       -10.1240   -1.4413   55.5570 H       1  ZINC000291574087    0.1600
     35 H35       -12.5031   -1.6487   57.5515 H       1  ZINC000291574087    0.0800
     36 H36       -13.5300   -2.5261   56.3922 H       1  ZINC000291574087    0.0800
     37 H37       -11.7970   -2.9129   56.5163 H       1  ZINC000291574087    0.0800
     38 H38       -13.7843    1.1760   53.5391 H       1  ZINC000291574087    0.1500
     39 H39        -7.1940    2.8394   50.2494 H       1  ZINC000291574087    0.1100
     40 H40        -8.3939    4.4724   51.7758 H       1  ZINC000291574087    0.1000
     41 H41        -6.8870    4.5920   52.8322 H       1  ZINC000291574087    0.1000
     42 H42        -5.5629    5.4506   50.8463 H       1  ZINC000291574087    0.1000
     43 H43        -7.0698    5.3309   49.7898 H       1  ZINC000291574087    0.1000
@<TRIPOS>BOND
     1     1     2    1
     2     1    24    1
     3     1    25    1
     4     1    26    1
     5     2     3    1
     6     3     4    1
     7     3     5    1
     8     3    21    1
     9     4    27    1
    10     4    28    1
    11     4    29    1
    12     5     6    1
    13     5    30    1
    14     5    31    1
    15     6     7   am
    16     6    32    1
    17     7     8    2
    18     7     9    1
    19     9    10    2
    20     9    11   am
    21    11    12    1
    22    11    33    1
    23    12    19   ar
    24    12    13   ar
    25    13    14   ar
    26    13    34    1
    27    14    15    1
    28    14    16   ar
    29    15    35    1
    30    15    36    1
    31    15    37    1
    32    16    17    1
    33    16    18   ar
    34    18    19   ar
    35    18    38    1
    36    19    20    1
    37    21    23    1
    38    21    22    1
    39    21    39    1
    40    22    23    1
    41    22    40    1
    42    22    41    1
    43    23    42    1
    44    23    43    1
@<TRIPOS>SUBSTRUCTURE
     1 ZINC000291574087        1 TEMP              0 ****  ****    0 ROOT


##########                                Name:    ZINC001139743874
##########                DOCK_Rotatable_Bonds:                   5
##########                         Heavy_Atoms:                  28
##########                    Molecular_Weight:             382.506
##########                DOCK_Rotatable_Bonds:                   5
##########                       Formal_Charge:           0.0199992
##########                     HBond_Acceptors:                   6
##########                        HBond_Donors:                   0
##########                         Heavy_Atoms:                  28
##########                          Grid_Score:          -29.354252
##########                     Grid_vdw_energy:          -30.286564
##########                      Grid_es_energy:            0.932312
##########           Internal_energy_repulsive:           17.606558

@<TRIPOS>MOLECULE
ZINC001139743874
 58 61 1 0 0
SMALL
USER_CHARGES


@<TRIPOS>ATOM
      1 C1        -16.9482   -0.1332   59.1273 C.3     1  ZINC001139743874   -0.1800
      2 C2        -15.6327   -0.5856   59.7646 C.3     1  ZINC001139743874    0.1400
      3 C3        -14.6810    0.6075   59.8717 C.3     1  ZINC001139743874   -0.1800
      4 C4        -15.9088   -1.1448   61.1617 C.3     1  ZINC001139743874   -0.1400
      5 O5        -15.0258   -1.6166   58.9418 O.3     1  ZINC001139743874   -0.3600
      6 C6        -13.6988   -1.8020   59.0743 C.2     1  ZINC001139743874    0.6500
      7 O7        -13.2120   -1.9394   60.1791 O.2     1  ZINC001139743874   -0.5700
      8 N8        -12.9106   -1.8352   57.9816 N.am    1  ZINC001139743874   -0.5900
      9 C9        -11.5008   -2.0310   58.1039 C.3     1  ZINC001139743874    0.1000
     10 C10       -10.6593   -0.7464   58.3498 C.3     1  ZINC001139743874   -0.1300
     11 C11       -11.2216    0.4116   57.4754 C.3     1  ZINC001139743874   -0.0900
     12 C12       -11.6508   -0.0680   56.1278 C.3     1  ZINC001139743874   -0.0800
     13 C13       -11.1775    0.7740   54.9370 C.3     1  ZINC001139743874    0.0100
     14 N14       -10.0346   -0.1648   54.8627 N.3     1  ZINC001139743874   -0.4700
     15 C15        -9.7448   -0.5322   53.4703 C.3     1  ZINC001139743874    0.0600
     16 C16        -8.6948    0.3949   52.9144 C.ar    1  ZINC001139743874   -0.1200
     17 C17        -8.9624    1.7570   52.7917 C.ar    1  ZINC001139743874    0.1500
     18 N18        -8.0724    2.5920   52.3124 N.ar    1  ZINC001139743874   -0.4600
     19 C19        -6.8675    2.1717   51.9205 C.ar    1  ZINC001139743874    0.0800
     20 C20        -5.9128    3.0719   51.4062 C.ar    1  ZINC001139743874   -0.0400
     21 C21        -4.6994    2.5774   51.0236 C.ar    1  ZINC001139743874   -0.1600
     22 C22        -4.4318    1.2149   51.1462 C.ar    1  ZINC001139743874    0.1300
     23 N23        -5.3217    0.3799   51.6249 N.ar    1  ZINC001139743874   -0.4700
     24 C24        -6.5269    0.8004   52.0171 C.ar    1  ZINC001139743874    0.0800
     25 C25        -7.4794   -0.0988   52.5361 C.ar    1  ZINC001139743874   -0.0400
     26 C26       -10.8287   -1.2185   55.5353 C.3     1  ZINC001139743874    0.0000
     27 C27       -13.1601   -0.3298   56.1321 C.3     1  ZINC001139743874   -0.1300
     28 C28       -13.4936   -1.6739   56.6122 C.3     1  ZINC001139743874    0.1400
     29 H29       -16.7515    0.2652   58.1320 H       1  ZINC001139743874    0.0900
     30 H30       -17.6261   -0.9833   59.0511 H       1  ZINC001139743874    0.0600
     31 H31       -17.4038    0.6407   59.7450 H       1  ZINC001139743874    0.0700
     32 H32       -15.1367    1.3814   60.4893 H       1  ZINC001139743874    0.0700
     33 H33       -13.7440    0.2853   60.3258 H       1  ZINC001139743874    0.0600
     34 H34       -14.4844    1.0060   58.8763 H       1  ZINC001139743874    0.0900
     35 H35       -16.5867   -1.9950   61.0854 H       1  ZINC001139743874    0.0700
     36 H36       -14.9717   -1.4671   61.6157 H       1  ZINC001139743874    0.0700
     37 H37       -16.3644   -0.3709   61.7794 H       1  ZINC001139743874    0.0800
     38 H38       -11.3226   -2.7189   58.9306 H       1  ZINC001139743874    0.0700
     39 H39       -11.1417   -2.5042   57.1900 H       1  ZINC001139743874    0.0900
     40 H40       -10.7176   -0.4691   59.4023 H       1  ZINC001139743874    0.0700
     41 H41        -9.6202   -0.9349   58.0796 H       1  ZINC001139743874    0.0800
     42 H42       -12.0774    0.8563   57.9832 H       1  ZINC001139743874    0.0600
     43 H43       -10.4493    1.1710   57.3527 H       1  ZINC001139743874    0.0700
     44 H44       -11.8415    0.7278   54.0739 H       1  ZINC001139743874    0.0700
     45 H45       -10.8937    1.7922   55.2034 H       1  ZINC001139743874    0.0900
     46 H46        -9.3794   -1.5585   53.4338 H       1  ZINC001139743874    0.0600
     47 H47       -10.6545   -0.4490   52.8757 H       1  ZINC001139743874    0.0900
     48 H48        -9.9267    2.1340   53.0987 H       1  ZINC001139743874    0.1700
     49 H49        -6.1354    4.1249   51.3169 H       1  ZINC001139743874    0.1500
     50 H50        -3.9467    3.2418   50.6257 H       1  ZINC001139743874    0.1500
     51 H51        -3.4675    0.8378   50.8388 H       1  ZINC001139743874    0.1700
     52 H52        -7.2553   -1.1512   52.6287 H       1  ZINC001139743874    0.1400
     53 H53       -10.2674   -1.7858   56.2778 H       1  ZINC001139743874    0.1000
     54 H54       -11.3900   -1.8520   54.8486 H       1  ZINC001139743874    0.0700
     55 H55       -13.6440    0.4061   56.7743 H       1  ZINC001139743874    0.0700
     56 H56       -13.5410   -0.2145   55.1174 H       1  ZINC001139743874    0.0800
     57 H57       -13.0720   -2.4197   55.9383 H       1  ZINC001139743874    0.0800
     58 H58       -14.5765   -1.7895   56.6573 H       1  ZINC001139743874    0.1000
@<TRIPOS>BOND
     1     1     2    1
     2     1    29    1
     3     1    30    1
     4     1    31    1
     5     2     3    1
     6     2     4    1
     7     2     5    1
     8     3    32    1
     9     3    33    1
    10     3    34    1
    11     4    35    1
    12     4    36    1
    13     4    37    1
    14     5     6    1
    15     6     7    2
    16     6     8   am
    17     8    28    1
    18     8     9    1
    19     9    10    1
    20     9    38    1
    21     9    39    1
    22    10    11    1
    23    10    40    1
    24    10    41    1
    25    11    12    1
    26    11    42    1
    27    11    43    1
    28    12    26    1
    29    12    13    1
    30    12    27    1
    31    13    14    1
    32    13    44    1
    33    13    45    1
    34    14    15    1
    35    14    26    1
    36    15    16    1
    37    15    46    1
    38    15    47    1
    39    16    25   ar
    40    16    17   ar
    41    17    18   ar
    42    17    48    1
    43    18    19   ar
    44    19    24   ar
    45    19    20   ar
    46    20    21   ar
    47    20    49    1
    48    21    22   ar
    49    21    50    1
    50    22    23   ar
    51    22    51    1
    52    23    24   ar
    53    24    25   ar
    54    25    52    1
    55    26    53    1
    56    26    54    1
    57    27    28    1
    58    27    55    1
    59    27    56    1
    60    28    57    1
    61    28    58    1
@<TRIPOS>SUBSTRUCTURE
     1 ZINC001139743874        1 TEMP              0 ****  ****    0 ROOT


##########                                Name:    ZINC000328606936
##########                DOCK_Rotatable_Bonds:                   6
##########                         Heavy_Atoms:                  23
##########                    Molecular_Weight:             338.428
##########                DOCK_Rotatable_Bonds:                   6
##########                       Formal_Charge:           0.0100001
##########                     HBond_Acceptors:                   7
##########                        HBond_Donors:                   2
##########                         Heavy_Atoms:                  23
##########                          Grid_Score:          -29.353060
##########                     Grid_vdw_energy:          -28.006332
##########                      Grid_es_energy:           -1.346727
##########           Internal_energy_repulsive:           16.766243

@<TRIPOS>MOLECULE
ZINC000328606936
 45 47 1 0 0
SMALL
USER_CHARGES


@<TRIPOS>ATOM
      1 C1          2.7880    1.3081   51.3509 C.3     1  <0>        -0.0500
      2 N2          1.4711    1.4912   50.7264 N.4     1  <0>        -0.3500
      3 H3          1.0500    0.5897   50.5588 H       1  <0>         0.4200
      4 C4          1.6287    2.2027   49.4509 C.3     1  <0>        -0.0900
      5 C5          2.5296    1.4085   48.5407 C.2     1  <0>         0.4900
      6 O6          3.7342    1.5960   48.5601 O.co2   1  <0>        -0.6700
      7 O7          2.0540    0.5783   47.7849 O.co2   1  <0>        -0.6400
      8 C8          0.6094    2.2754   51.6213 C.3     1  <0>         0.0100
      9 H9          0.5264    1.7854   52.5914 H       1  <0>         0.1600
     10 C10        -0.7883    2.4621   50.9929 C.3     1  <0>         0.1000
     11 N11        -1.1882    3.8371   51.3724 N.am    1  <0>        -0.6200
     12 C12        -2.4077    4.2688   51.7506 C.2     1  <0>         0.6200
     13 O13        -2.5777    5.4402   52.0337 O.2     1  <0>        -0.5100
     14 C14        -3.5291    3.3275   51.8210 C.2     1  <0>        -0.2800
     15 C15        -4.4741    3.2970   52.8002 C.2     1  <0>        -0.0300
     16 C16        -5.4276    2.3094   52.6342 C.2     1  <0>        -0.1200
     17 C17        -5.2471    1.5533   51.5276 C.2     1  <0>        -0.1900
     18 C18        -6.1526    0.4072   51.1173 C.3     1  <0>        -0.0500
     19 C19        -7.0036   -0.0032   52.3218 C.3     1  <0>        -0.1200
     20 C20        -7.6525    1.2471   52.9227 C.3     1  <0>        -0.1200
     21 C21        -6.5776    2.0917   53.6092 C.3     1  <0>        -0.0600
     22 S22        -3.8732    2.0636   50.6515 S.3     1  <0>         0.2000
     23 C23         0.0564    4.6300   51.2421 C.3     1  <0>         0.0600
     24 C24         1.1680    3.7038   51.7879 C.3     1  <0>         0.0800
     25 H25         2.0812    3.8238   51.2049 H       1  <0>         0.1000
     26 O26         1.4185    3.9871   53.1660 O.3     1  <0>        -0.5400
     27 H27         3.2429    2.2819   51.5320 H       1  <0>         0.1100
     28 H28         2.6710    0.7802   52.2974 H       1  <0>         0.1100
     29 H29         3.4273    0.7263   50.6869 H       1  <0>         0.1600
     30 H30         0.6533    2.3251   48.9801 H       1  <0>         0.1200
     31 H31         2.0695    3.1827   49.6336 H       1  <0>         0.1300
     32 H32        -0.7331    2.3680   49.9083 H       1  <0>         0.1000
     33 H33        -1.4896    1.7354   51.4030 H       1  <0>         0.1200
     34 H34        -4.4784    3.9835   53.6340 H       1  <0>         0.1500
     35 H35        -6.8023    0.7281   50.3030 H       1  <0>         0.0900
     36 H36        -5.5468   -0.4388   50.7925 H       1  <0>         0.0800
     37 H37        -7.7793   -0.6982   52.0005 H       1  <0>         0.0700
     38 H38        -6.3708   -0.4809   53.0697 H       1  <0>         0.0700
     39 H39        -8.1232    1.8295   52.1306 H       1  <0>         0.0700
     40 H40        -8.4048    0.9511   53.6539 H       1  <0>         0.0700
     41 H41        -6.2133    1.5703   54.4944 H       1  <0>         0.0800
     42 H42        -6.9985    3.0549   53.8975 H       1  <0>         0.0800
     43 H43         0.2436    4.8745   50.1966 H       1  <0>         0.1000
     44 H44        -0.0075    5.5389   51.8403 H       1  <0>         0.1000
     45 H45         0.6314    3.9426   53.7260 H       1  <0>         0.4000
@<TRIPOS>BOND
     1     1     2    1
     2     1    27    1
     3     1    28    1
     4     1    29    1
     5     2     3    1
     6     2     4    1
     7     2     8    1
     8     4     5    1
     9     4    30    1
    10     4    31    1
    11     5     6   ar
    12     5     7   ar
    13     8     9    1
    14     8    24    1
    15     8    10    1
    16    10    11    1
    17    10    32    1
    18    10    33    1
    19    11    12   am
    20    11    23    1
    21    12    13    2
    22    12    14    1
    23    14    22    1
    24    14    15    2
    25    15    16    1
    26    15    34    1
    27    16    21    1
    28    16    17    2
    29    17    18    1
    30    17    22    1
    31    18    19    1
    32    18    35    1
    33    18    36    1
    34    19    20    1
    35    19    37    1
    36    19    38    1
    37    20    21    1
    38    20    39    1
    39    20    40    1
    40    21    41    1
    41    21    42    1
    42    23    24    1
    43    23    43    1
    44    23    44    1
    45    24    25    1
    46    24    26    1
    47    26    45    1
@<TRIPOS>SUBSTRUCTURE
     1 <0>         1 TEMP              0 ****  ****    0 ROOT


##########                                Name:    ZINC000032503012
##########                DOCK_Rotatable_Bonds:                   8
##########                         Heavy_Atoms:                  27
##########                    Molecular_Weight:             390.503
##########                DOCK_Rotatable_Bonds:                   8
##########                       Formal_Charge:           0.0099995
##########                     HBond_Acceptors:                   7
##########                        HBond_Donors:                   2
##########                         Heavy_Atoms:                  27
##########                          Grid_Score:          -29.351446
##########                     Grid_vdw_energy:          -29.797346
##########                      Grid_es_energy:            0.445900
##########           Internal_energy_repulsive:           40.547199

@<TRIPOS>MOLECULE
ZINC000032503012
 53 54 1 0 0
SMALL
USER_CHARGES


@<TRIPOS>ATOM
      1 C1         -7.7389    0.1937   62.4066 C.3     1  ZINC000032503012   -0.1200
      2 C2         -7.9668    1.5450   61.7796 C.ar    1  ZINC000032503012   -0.0500
      3 C3         -8.4570    2.5873   62.5443 C.ar    1  ZINC000032503012   -0.1600
      4 C4         -8.6672    3.8285   61.9719 C.ar    1  ZINC000032503012   -0.0700
      5 C5         -8.3879    4.0297   60.6342 C.ar    1  ZINC000032503012   -0.1500
      6 C6         -7.8959    2.9852   59.8647 C.ar    1  ZINC000032503012    0.1300
      7 O7         -7.6199    3.1808   58.5484 O.3     1  ZINC000032503012   -0.2800
      8 C8         -8.0971    2.1938   57.6319 C.3     1  ZINC000032503012    0.0700
      9 H9         -7.6543    1.2279   57.8749 H       1  ZINC000032503012    0.1100
     10 C10        -9.6206    2.0967   57.7345 C.3     1  ZINC000032503012   -0.1800
     11 C11        -7.7121    2.5841   56.2281 C.2     1  ZINC000032503012    0.5200
     12 O12        -6.6319    3.0926   56.0147 O.2     1  ZINC000032503012   -0.4900
     13 N13        -8.5681    2.3680   55.2098 N.am    1  ZINC000032503012   -0.6700
     14 C14        -8.2107    2.7303   53.9064 C.ar    1  ZINC000032503012    0.1300
     15 C15        -8.8659    3.7766   53.2708 C.ar    1  ZINC000032503012   -0.0600
     16 C16        -8.5108    4.1319   51.9841 C.ar    1  ZINC000032503012   -0.1200
     17 C17        -7.5046    3.4465   51.3288 C.ar    1  ZINC000032503012   -0.0300
     18 C18        -6.8504    2.4036   51.9589 C.ar    1  ZINC000032503012   -0.6600
     19 S19        -5.5688    1.5332   51.1195 S.o2    1  ZINC000032503012    2.7000
     20 O20        -5.8976    0.1534   51.2058 O.2     1  ZINC000032503012   -0.9600
     21 O21        -5.3669    2.2083   49.8855 O.2     1  ZINC000032503012   -0.9500
     22 N22        -4.1800    1.7389   51.9977 N.am    1  ZINC000032503012   -1.1100
     23 C23        -3.6506    3.0856   52.2264 C.3     1  ZINC000032503012    0.1700
     24 C24        -2.1237    3.0273   52.3026 C.3     1  ZINC000032503012   -0.1900
     25 C25        -4.0693    4.0007   51.0740 C.3     1  ZINC000032503012   -0.1500
     26 C26        -4.2063    3.6353   53.5418 C.3     1  ZINC000032503012   -0.1800
     27 C27        -7.1961    2.0477   53.2477 C.ar    1  ZINC000032503012   -0.0400
     28 C28        -7.6805    1.7427   60.4425 C.ar    1  ZINC000032503012   -0.2100
     29 H29        -6.7251    0.1438   62.8038 H       1  ZINC000032503012    0.0700
     30 H30        -8.4539    0.0432   63.2155 H       1  ZINC000032503012    0.0700
     31 H31        -7.8728   -0.5832   61.6539 H       1  ZINC000032503012    0.0700
     32 H32        -8.6764    2.4318   63.5902 H       1  ZINC000032503012    0.1300
     33 H33        -9.0505    4.6411   62.5712 H       1  ZINC000032503012    0.1300
     34 H34        -8.5526    4.9991   60.1876 H       1  ZINC000032503012    0.1300
     35 H35        -9.8990    1.8143   58.7498 H       1  ZINC000032503012    0.0800
     36 H36       -10.0634    3.0625   57.4915 H       1  ZINC000032503012    0.0800
     37 H37        -9.9845    1.3438   57.0354 H       1  ZINC000032503012    0.0800
     38 H38        -9.4321    1.9612   55.3804 H       1  ZINC000032503012    0.4100
     39 H39        -9.6524    4.3120   53.7819 H       1  ZINC000032503012    0.1400
     40 H40        -9.0199    4.9457   51.4891 H       1  ZINC000032503012    0.1400
     41 H41        -7.2291    3.7260   50.3226 H       1  ZINC000032503012    0.1500
     42 H42        -3.7171    0.9676   52.3608 H       1  ZINC000032503012    0.4200
     43 H43        -1.7380    2.4750   51.4457 H       1  ZINC000032503012    0.0700
     44 H44        -1.7205    4.0399   52.2936 H       1  ZINC000032503012    0.0800
     45 H45        -1.8247    2.5253   53.2228 H       1  ZINC000032503012    0.0700
     46 H46        -5.1571    4.0423   51.0197 H       1  ZINC000032503012    0.0700
     47 H47        -3.6754    5.0027   51.2443 H       1  ZINC000032503012    0.0700
     48 H48        -3.6734    3.6091   50.1370 H       1  ZINC000032503012    0.0600
     49 H49        -3.7507    3.1054   54.3784 H       1  ZINC000032503012    0.0900
     50 H50        -3.9772    4.6983   53.6170 H       1  ZINC000032503012    0.0700
     51 H51        -5.2867    3.4937   53.5672 H       1  ZINC000032503012    0.0600
     52 H52        -6.6850    1.2332   53.7392 H       1  ZINC000032503012    0.1400
     53 H53        -7.2977    0.9281   59.8455 H       1  ZINC000032503012    0.1300
@<TRIPOS>BOND
     1     1     2    1
     2     1    29    1
     3     1    30    1
     4     1    31    1
     5     2    28   ar
     6     2     3   ar
     7     3     4   ar
     8     3    32    1
     9     4     5   ar
    10     4    33    1
    11     5     6   ar
    12     5    34    1
    13     6     7    1
    14     6    28   ar
    15     7     8    1
    16     8     9    1
    17     8    10    1
    18     8    11    1
    19    10    35    1
    20    10    36    1
    21    10    37    1
    22    11    12    2
    23    11    13   am
    24    13    14    1
    25    13    38    1
    26    14    27   ar
    27    14    15   ar
    28    15    16   ar
    29    15    39    1
    30    16    17   ar
    31    16    40    1
    32    17    18   ar
    33    17    41    1
    34    18    19    1
    35    18    27   ar
    36    19    20    2
    37    19    21    2
    38    19    22   am
    39    22    23    1
    40    22    42    1
    41    23    24    1
    42    23    25    1
    43    23    26    1
    44    24    43    1
    45    24    44    1
    46    24    45    1
    47    25    46    1
    48    25    47    1
    49    25    48    1
    50    26    49    1
    51    26    50    1
    52    26    51    1
    53    27    52    1
    54    28    53    1
@<TRIPOS>SUBSTRUCTURE
     1 ZINC000032503012        1 TEMP              0 ****  ****    0 ROOT


##########                                Name:    ZINC000442864105
##########                DOCK_Rotatable_Bonds:                   7
##########                         Heavy_Atoms:                  30
##########                    Molecular_Weight:              414.39
##########                DOCK_Rotatable_Bonds:                   7
##########                       Formal_Charge:           0.0200001
##########                     HBond_Acceptors:                  10
##########                        HBond_Donors:                   2
##########                         Heavy_Atoms:                  30
##########                          Grid_Score:          -29.343323
##########                     Grid_vdw_energy:          -29.248596
##########                      Grid_es_energy:           -0.094727
##########           Internal_energy_repulsive:            9.641459

@<TRIPOS>MOLECULE
ZINC000442864105
 47 50 1 0 0
SMALL
USER_CHARGES


@<TRIPOS>ATOM
      1 C1         -6.3563    4.3729   51.1044 C.3     1  ZINC000442864105    0.0800
      2 N2         -5.8849    2.9988   51.2943 N.pl3   1  ZINC000442864105   -0.4900
      3 C3         -4.6288    2.5478   50.9851 C.2     1  ZINC000442864105    0.0300
      4 C4         -4.5256    1.2431   51.2815 C.2     1  ZINC000442864105   -0.1900
      5 C5         -5.8204    0.8230   51.8248 C.ar    1  ZINC000442864105   -0.1600
      6 C6         -6.3231   -0.3890   52.3022 C.ar    1  ZINC000442864105   -0.0200
      7 C7         -7.6097   -0.4609   52.7543 C.ar    1  ZINC000442864105   -0.2100
      8 C8         -8.4267    0.6686   52.7431 C.ar    1  ZINC000442864105    0.2400
      9 N9         -9.7415    0.5783   53.2094 N.pl3   1  ZINC000442864105   -0.7400
     10 C10       -10.1345    1.2811   54.4332 C.3     1  ZINC000442864105    0.1100
     11 C11       -10.8636    0.3298   55.3467 C.2     1  ZINC000442864105    0.5100
     12 O12       -11.2882   -0.7209   54.9142 O.2     1  ZINC000442864105   -0.5100
     13 N13       -11.0441    0.6465   56.6442 N.am    1  ZINC000442864105   -0.6600
     14 C14       -11.7213   -0.2371   57.4927 C.ar    1  ZINC000442864105    0.1600
     15 C15       -12.9715   -0.7219   57.1375 C.ar    1  ZINC000442864105   -0.0700
     16 C16       -13.6383   -1.5942   57.9768 C.ar    1  ZINC000442864105   -0.1600
     17 C17       -14.9964   -2.1197   57.5888 C.3     1  ZINC000442864105    0.5100
     18 F18       -15.2098   -1.8980   56.2242 F       1  ZINC000442864105   -0.1700
     19 F19       -15.0585   -3.4920   57.8538 F       1  ZINC000442864105   -0.1700
     20 F20       -15.9816   -1.4569   58.3286 F       1  ZINC000442864105   -0.1700
     21 C21       -13.0628   -1.9866   59.1715 C.ar    1  ZINC000442864105   -0.0600
     22 C22       -11.8178   -1.5081   59.5336 C.ar    1  ZINC000442864105   -0.1100
     23 C23       -11.1388   -0.6371   58.6950 C.ar    1  ZINC000442864105    0.1500
     24 N24        -9.8753   -0.1503   59.0605 N.pl3   1  ZINC000442864105   -0.3300
     25 C25        -9.4726    1.1351   59.0556 C.2     1  ZINC000442864105    0.2800
     26 N26        -8.2295    1.1719   59.4631 N.2     1  ZINC000442864105   -0.5300
     27 C27        -7.8063   -0.0617   59.7360 C.2     1  ZINC000442864105    0.2300
     28 N28        -8.7798   -0.9053   59.5105 N.2     1  ZINC000442864105   -0.3400
     29 C29        -7.9458    1.8789   52.2741 C.ar    1  ZINC000442864105   -0.2100
     30 C30        -6.6364    1.9693   51.8155 C.ar    1  ZINC000442864105    0.1500
     31 H31        -6.1491    4.9554   52.0020 H       1  ZINC000442864105    0.0700
     32 H32        -5.8409    4.8197   50.2543 H       1  ZINC000442864105    0.0800
     33 H33        -7.4299    4.3659   50.9156 H       1  ZINC000442864105    0.0800
     34 H34        -3.8387    3.1525   50.5651 H       1  ZINC000442864105    0.1700
     35 H35        -3.6536    0.6205   51.1451 H       1  ZINC000442864105    0.1400
     36 H36        -5.6958   -1.2682   52.3133 H       1  ZINC000442864105    0.1200
     37 H37        -7.9970   -1.3992   53.1228 H       1  ZINC000442864105    0.1200
     38 H38       -10.3935    0.0504   52.7226 H       1  ZINC000442864105    0.4100
     39 H39        -9.2447    1.6585   54.9371 H       1  ZINC000442864105    0.1000
     40 H40       -10.7893    2.1146   54.1793 H       1  ZINC000442864105    0.1000
     41 H41       -10.7045    1.4867   56.9902 H       1  ZINC000442864105    0.4300
     42 H42       -13.4238   -0.4175   56.2053 H       1  ZINC000442864105    0.1700
     43 H43       -13.5880   -2.6687   59.8236 H       1  ZINC000442864105    0.1500
     44 H44       -11.3714   -1.8164   60.4675 H       1  ZINC000442864105    0.1500
     45 H45       -10.0707    1.9862   58.7654 H       1  ZINC000442864105    0.2300
     46 H46        -6.8200   -0.3224   60.0905 H       1  ZINC000442864105    0.2300
     47 H47        -8.5838    2.7503   52.2681 H       1  ZINC000442864105    0.1200
@<TRIPOS>BOND
     1     1     2    1
     2     1    31    1
     3     1    32    1
     4     1    33    1
     5     2    30    1
     6     2     3    1
     7     3     4    2
     8     3    34    1
     9     4     5    1
    10     4    35    1
    11     5    30   ar
    12     5     6   ar
    13     6     7   ar
    14     6    36    1
    15     7     8   ar
    16     7    37    1
    17     8     9    1
    18     8    29   ar
    19     9    10    1
    20     9    38    1
    21    10    11    1
    22    10    39    1
    23    10    40    1
    24    11    12    2
    25    11    13   am
    26    13    14    1
    27    13    41    1
    28    14    23   ar
    29    14    15   ar
    30    15    16   ar
    31    15    42    1
    32    16    17    1
    33    16    21   ar
    34    17    18    1
    35    17    19    1
    36    17    20    1
    37    21    22   ar
    38    21    43    1
    39    22    23   ar
    40    22    44    1
    41    23    24    1
    42    24    28    1
    43    24    25    1
    44    25    26    2
    45    25    45    1
    46    26    27    1
    47    27    28    2
    48    27    46    1
    49    29    30   ar
    50    29    47    1
@<TRIPOS>SUBSTRUCTURE
     1 ZINC000442864105        1 TEMP              0 ****  ****    0 ROOT


##########                                Name:    ZINC000885154703
##########                DOCK_Rotatable_Bonds:                   5
##########                         Heavy_Atoms:                  24
##########                    Molecular_Weight:             396.259
##########                DOCK_Rotatable_Bonds:                   5
##########                       Formal_Charge:          -0.0099998
##########                     HBond_Acceptors:                   6
##########                        HBond_Donors:                   1
##########                         Heavy_Atoms:                  24
##########                          Grid_Score:          -29.338545
##########                     Grid_vdw_energy:          -28.553205
##########                      Grid_es_energy:           -0.785339
##########           Internal_energy_repulsive:            9.525913

@<TRIPOS>MOLECULE
ZINC000885154703
 43 45 1 0 0
SMALL
USER_CHARGES


@<TRIPOS>ATOM
      1 C1        -13.0718    1.1031   51.6077 C.3     1  ZINC000885154703   -0.1500
      2 C2        -12.5990   -0.2610   52.1144 C.3     1  ZINC000885154703   -0.0300
      3 C3        -11.1259   -0.1983   52.4257 C.2     1  ZINC000885154703    0.1700
      4 N4        -10.2804   -1.1817   52.3457 N.2     1  ZINC000885154703   -0.3800
      5 O5         -9.1706   -0.8081   52.6623 O.3     1  ZINC000885154703    0.0800
      6 C6         -9.2038    0.4885   52.9841 C.2     1  ZINC000885154703    0.1800
      7 C7         -8.0381    1.3324   53.4310 C.3     1  ZINC000885154703    0.0000
      8 H8         -7.9649    1.3217   54.5185 H       1  ZINC000885154703    0.1300
      9 C9         -8.2100    2.7803   52.9272 C.3     1  ZINC000885154703   -0.1200
     10 C10        -6.7727    3.2291   52.5635 C.3     1  ZINC000885154703   -0.1300
     11 C11        -6.1595    1.9466   51.9486 C.3     1  ZINC000885154703    0.1400
     12 H12        -6.4699    1.8357   50.9096 H       1  ZINC000885154703    0.1000
     13 N13        -4.6981    1.9799   52.0451 N.am    1  ZINC000885154703   -0.7100
     14 C14        -3.9958    2.8801   51.3289 C.2     1  ZINC000885154703    0.5700
     15 O15        -4.5750    3.6634   50.6017 O.2     1  ZINC000885154703   -0.5100
     16 C16        -2.5226    2.9148   51.4275 C.ar    1  ZINC000885154703   -0.1600
     17 C17        -1.7407    2.1872   50.5252 C.ar    1  ZINC000885154703    0.1500
     18 F18        -2.3304    1.4492   49.5594 F       1  ZINC000885154703   -0.1200
     19 C19        -0.3616    2.2255   50.6242 C.ar    1  ZINC000885154703   -0.1500
     20 C20         0.2423    2.9800   51.6120 C.ar    1  ZINC000885154703   -0.0400
     21 C21        -0.5272    3.7031   52.5088 C.ar    1  ZINC000885154703   -0.1100
     22 Br22        0.3118    4.7315   53.8557 Br      1  ZINC000885154703   -0.0300
     23 C23        -1.9034    3.6792   52.4189 C.ar    1  ZINC000885154703    0.0100
     24 C24        -2.7376    4.4672   53.3957 C.3     1  ZINC000885154703   -0.1300
     25 C25        -6.7343    0.8015   52.8098 C.3     1  ZINC000885154703   -0.1300
     26 N26       -10.4437    0.8874   52.8318 N.2     1  ZINC000885154703   -0.4800
     27 H27       -12.8943    1.8570   52.3748 H       1  ZINC000885154703    0.0600
     28 H28       -12.5205    1.3664   50.7051 H       1  ZINC000885154703    0.0600
     29 H29       -14.1373    1.0578   51.3825 H       1  ZINC000885154703    0.0700
     30 H30       -13.1504   -0.5242   53.0171 H       1  ZINC000885154703    0.1000
     31 H31       -12.7766   -1.0149   51.3474 H       1  ZINC000885154703    0.0900
     32 H32        -8.8514    2.8041   52.0462 H       1  ZINC000885154703    0.0800
     33 H33        -8.6191    3.4124   53.7153 H       1  ZINC000885154703    0.0900
     34 H34        -6.7938    4.0365   51.8317 H       1  ZINC000885154703    0.0800
     35 H35        -6.2245    3.5297   53.4562 H       1  ZINC000885154703    0.0800
     36 H36        -4.2360    1.3540   52.6244 H       1  ZINC000885154703    0.4000
     37 H37         0.2445    1.6642   49.9283 H       1  ZINC000885154703    0.1500
     38 H38         1.3195    3.0060   51.6852 H       1  ZINC000885154703    0.1500
     39 H39        -2.9116    5.4680   53.0003 H       1  ZINC000885154703    0.0900
     40 H40        -3.6932    3.9646   53.5457 H       1  ZINC000885154703    0.0800
     41 H41        -2.2115    4.5390   54.3476 H       1  ZINC000885154703    0.0900
     42 H42        -6.0272    0.5340   53.5950 H       1  ZINC000885154703    0.0900
     43 H43        -6.9448   -0.0662   52.1848 H       1  ZINC000885154703    0.0800
@<TRIPOS>BOND
     1     1     2    1
     2     1    27    1
     3     1    28    1
     4     1    29    1
     5     2     3    1
     6     2    30    1
     7     2    31    1
     8     3    26    1
     9     3     4    2
    10     4     5    1
    11     5     6    1
    12     6     7    1
    13     6    26    2
    14     7     8    1
    15     7    25    1
    16     7     9    1
    17     9    10    1
    18     9    32    1
    19     9    33    1
    20    10    11    1
    21    10    34    1
    22    10    35    1
    23    11    12    1
    24    11    13    1
    25    11    25    1
    26    13    14   am
    27    13    36    1
    28    14    15    2
    29    14    16    1
    30    16    23   ar
    31    16    17   ar
    32    17    18    1
    33    17    19   ar
    34    19    20   ar
    35    19    37    1
    36    20    21   ar
    37    20    38    1
    38    21    22    1
    39    21    23   ar
    40    23    24    1
    41    24    39    1
    42    24    40    1
    43    24    41    1
    44    25    42    1
    45    25    43    1
@<TRIPOS>SUBSTRUCTURE
     1 ZINC000885154703        1 TEMP              0 ****  ****    0 ROOT


##########                                Name:    ZINC000012979878
##########                DOCK_Rotatable_Bonds:                   7
##########                         Heavy_Atoms:                  26
##########                    Molecular_Weight:             388.874
##########                DOCK_Rotatable_Bonds:                   7
##########                       Formal_Charge:          -0.0100003
##########                     HBond_Acceptors:                   7
##########                        HBond_Donors:                   1
##########                         Heavy_Atoms:                  26
##########                          Grid_Score:          -29.316248
##########                     Grid_vdw_energy:          -29.604113
##########                      Grid_es_energy:            0.287865
##########           Internal_energy_repulsive:           11.514305

@<TRIPOS>MOLECULE
ZINC000012979878
 43 45 1 0 0
SMALL
USER_CHARGES


@<TRIPOS>ATOM
      1 C1        -10.5137   -2.2611   57.6083 C.3     1  <0>         0.0300
      2 O2        -11.8301   -2.0260   57.1044 O.3     1  <0>        -0.3100
      3 C3        -11.9412   -1.2027   56.0289 C.ar    1  <0>         0.1500
      4 C4        -13.1704   -1.0352   55.4069 C.ar    1  <0>        -0.2200
      5 C5        -13.2849   -0.1986   54.3127 C.ar    1  <0>        -0.0600
      6 C6        -12.1770    0.4736   53.8350 C.ar    1  <0>        -0.1800
      7 C7        -10.9437    0.3097   54.4539 C.ar    1  <0>         0.1800
      8 N8         -9.8219    0.9902   53.9703 N.am    1  <0>        -0.6700
      9 C9         -9.1016    0.4682   52.9578 C.2     1  <0>         0.6000
     10 O10        -9.4275   -0.5954   52.4644 O.2     1  <0>        -0.4900
     11 C11        -7.9251    1.1818   52.4506 C.2     1  <0>        -0.3000
     12 C12        -6.7580    0.6174   52.0504 C.2     1  <0>         0.1600
     13 C13        -6.5161   -0.8699   52.0778 C.3     1  <0>        -0.0900
     14 N14        -5.8604    1.4766   51.6374 N.2     1  <0>        -0.4500
     15 C15        -6.1825    2.7300   51.6589 C.2     1  <0>         0.0600
     16 C16        -5.2819    3.8570   51.2231 C.3     1  <0>         0.1300
     17 O17        -4.2628    4.0589   52.2043 O.3     1  <0>        -0.3000
     18 C18        -2.9767    3.8734   51.8054 C.ar    1  <0>         0.1300
     19 C19        -2.0792    4.9305   51.8408 C.ar    1  <0>        -0.2000
     20 C20        -0.7726    4.7400   51.4349 C.ar    1  <0>        -0.0700
     21 C21        -0.3589    3.4958   50.9929 C.ar    1  <0>        -0.0700
     22 Cl22        1.2835    3.2589   50.4829 Cl      1  <0>        -0.0700
     23 C23        -1.2526    2.4401   50.9573 C.ar    1  <0>        -0.0700
     24 C24        -2.5586    2.6252   51.3678 C.ar    1  <0>        -0.1300
     25 S25        -7.7765    2.9255   52.2447 S.3     1  <0>         0.2000
     26 C26       -10.8280   -0.5255   55.5561 C.ar    1  <0>        -0.1500
     27 H27        -9.9017   -2.7140   56.8283 H       1  <0>         0.0600
     28 H28       -10.0683   -1.3152   57.9164 H       1  <0>         0.0600
     29 H29       -10.5671   -2.9335   58.4646 H       1  <0>         0.1000
     30 H30       -14.0385   -1.5595   55.7782 H       1  <0>         0.1300
     31 H31       -14.2425   -0.0706   53.8300 H       1  <0>         0.1300
     32 H32       -12.2692    1.1268   52.9799 H       1  <0>         0.1300
     33 H33        -9.5620    1.8380   54.3636 H       1  <0>         0.4100
     34 H34        -6.8234   -1.3055   51.1270 H       1  <0>         0.0900
     35 H35        -5.4555   -1.0626   52.2398 H       1  <0>         0.0800
     36 H36        -7.0943   -1.3172   52.8862 H       1  <0>         0.1000
     37 H37        -4.8216    3.6056   50.2677 H       1  <0>         0.0900
     38 H38        -5.8682    4.7696   51.1151 H       1  <0>         0.1000
     39 H39        -2.4019    5.9020   52.1850 H       1  <0>         0.1400
     40 H40        -0.0736    5.5628   51.4623 H       1  <0>         0.1400
     41 H41        -0.9278    1.4695   50.6123 H       1  <0>         0.1400
     42 H42        -3.2558    1.8009   51.3398 H       1  <0>         0.1400
     43 H43        -9.8708   -0.6543   56.0392 H       1  <0>         0.1400
@<TRIPOS>BOND
     1     1     2    1
     2     1    27    1
     3     1    28    1
     4     1    29    1
     5     2     3    1
     6     3    26   ar
     7     3     4   ar
     8     4     5   ar
     9     4    30    1
    10     5     6   ar
    11     5    31    1
    12     6     7   ar
    13     6    32    1
    14     7     8    1
    15     7    26   ar
    16     8     9   am
    17     8    33    1
    18     9    10    2
    19     9    11    1
    20    11    25    1
    21    11    12    2
    22    12    13    1
    23    12    14    1
    24    13    34    1
    25    13    35    1
    26    13    36    1
    27    14    15    2
    28    15    16    1
    29    15    25    1
    30    16    17    1
    31    16    37    1
    32    16    38    1
    33    17    18    1
    34    18    24   ar
    35    18    19   ar
    36    19    20   ar
    37    19    39    1
    38    20    21   ar
    39    20    40    1
    40    21    22    1
    41    21    23   ar
    42    23    24   ar
    43    23    41    1
    44    24    42    1
    45    26    43    1
@<TRIPOS>SUBSTRUCTURE
     1 <0>         1 TEMP              0 ****  ****    0 ROOT


##########                                Name:    ZINC000482540246
##########                DOCK_Rotatable_Bonds:                  10
##########                         Heavy_Atoms:                  30
##########                    Molecular_Weight:              409.46
##########                DOCK_Rotatable_Bonds:                  10
##########                       Formal_Charge:         2.83122e-07
##########                     HBond_Acceptors:                   7
##########                        HBond_Donors:                   2
##########                         Heavy_Atoms:                  30
##########                          Grid_Score:          -29.296349
##########                     Grid_vdw_energy:          -30.134363
##########                      Grid_es_energy:            0.838015
##########           Internal_energy_repulsive:           13.286297

@<TRIPOS>MOLECULE
ZINC000482540246
 54 56 1 0 0
SMALL
USER_CHARGES


@<TRIPOS>ATOM
      1 C1        -17.4815   -4.2440   47.4509 C.3     1  ZINC000482540246    0.0400
      2 O2        -16.3211   -3.4424   47.6813 O.3     1  ZINC000482540246   -0.3100
      3 C3        -16.4130   -2.4873   48.6407 C.ar    1  ZINC000482540246    0.3300
      4 C4        -15.3199   -1.6733   48.9076 C.ar    1  ZINC000482540246   -0.1800
      5 C5        -15.4265   -0.7028   49.8887 C.ar    1  ZINC000482540246   -0.0100
      6 C6        -14.2636    0.2010   50.2083 C.3     1  ZINC000482540246    0.2000
      7 H7        -14.6316    1.1164   50.6717 H       1  ZINC000482540246    0.1000
      8 C8        -13.5170    0.5468   48.9184 C.3     1  ZINC000482540246   -0.1600
      9 N9        -13.3537   -0.4820   51.1312 N.am    1  ZINC000482540246   -0.7400
     10 C10       -12.4877    0.2331   51.8762 C.2     1  ZINC000482540246    0.7100
     11 O11       -12.4606    1.4451   51.7813 O.2     1  ZINC000482540246   -0.5800
     12 N12       -11.6516   -0.3950   52.7264 N.am    1  ZINC000482540246   -0.7400
     13 C13       -10.7115    0.3825   53.5375 C.3     1  ZINC000482540246    0.2100
     14 H14       -10.9716    1.4395   53.4822 H       1  ZINC000482540246    0.1200
     15 C15        -9.2908    0.1783   53.0077 C.3     1  ZINC000482540246    0.0500
     16 O16        -8.4330    1.1881   53.5429 O.3     1  ZINC000482540246   -0.3000
     17 C17        -7.3641    1.5544   52.7868 C.ar    1  ZINC000482540246    0.1000
     18 C18        -6.2563    0.7254   52.7027 C.ar    1  ZINC000482540246   -0.1800
     19 C19        -5.1709    1.0994   51.9330 C.ar    1  ZINC000482540246   -0.0900
     20 C20        -5.1883    2.2990   51.2467 C.ar    1  ZINC000482540246   -0.1300
     21 C21        -6.2914    3.1293   51.3281 C.ar    1  ZINC000482540246   -0.1200
     22 C22        -7.3824    2.7576   52.0921 C.ar    1  ZINC000482540246    0.0700
     23 F23        -8.4601    3.5684   52.1719 F       1  ZINC000482540246   -0.1300
     24 C24       -10.7841   -0.0783   54.9706 C.ar    1  ZINC000482540246   -0.1000
     25 C25       -11.0544    0.8311   55.9761 C.ar    1  ZINC000482540246   -0.0800
     26 C26       -11.1210    0.4084   57.2906 C.ar    1  ZINC000482540246   -0.1200
     27 C27       -10.9177   -0.9235   57.5996 C.ar    1  ZINC000482540246   -0.1200
     28 C28       -10.6483   -1.8329   56.5940 C.ar    1  ZINC000482540246   -0.1200
     29 C29       -10.5859   -1.4111   55.2790 C.ar    1  ZINC000482540246   -0.1000
     30 C30       -16.6287   -0.5807   50.5711 C.ar    1  ZINC000482540246   -0.2100
     31 C31       -17.6746   -1.4246   50.2534 C.ar    1  ZINC000482540246    0.1500
     32 N32       -17.5445   -2.3369   49.3091 N.ar    1  ZINC000482540246   -0.5400
     33 H33       -17.2733   -4.9661   46.6613 H       1  ZINC000482540246    0.1000
     34 H34       -17.7452   -4.7732   48.3667 H       1  ZINC000482540246    0.0600
     35 H35       -18.3109   -3.6045   47.1491 H       1  ZINC000482540246    0.0600
     36 H36       -14.3988   -1.7961   48.3572 H       1  ZINC000482540246    0.1500
     37 H37       -13.1491   -0.3686   48.4550 H       1  ZINC000482540246    0.0600
     38 H38       -14.1941    1.0549   48.2318 H       1  ZINC000482540246    0.0700
     39 H39       -12.6759    1.2005   49.1495 H       1  ZINC000482540246    0.0700
     40 H40       -13.3744   -1.4488   51.2060 H       1  ZINC000482540246    0.4000
     41 H41       -11.6723   -1.3619   52.8013 H       1  ZINC000482540246    0.4000
     42 H42        -8.9280   -0.8042   53.3098 H       1  ZINC000482540246    0.0800
     43 H43        -9.2957    0.2450   51.9197 H       1  ZINC000482540246    0.0800
     44 H44        -6.2412   -0.2121   53.2388 H       1  ZINC000482540246    0.1400
     45 H45        -4.3077    0.4535   51.8680 H       1  ZINC000482540246    0.1300
     46 H46        -4.3388    2.5887   50.6460 H       1  ZINC000482540246    0.1400
     47 H47        -6.3023    4.0664   50.7912 H       1  ZINC000482540246    0.1400
     48 H48       -11.2133    1.8717   55.7347 H       1  ZINC000482540246    0.1200
     49 H49       -11.3315    1.1190   58.0762 H       1  ZINC000482540246    0.1200
     50 H50       -10.9691   -1.2535   58.6266 H       1  ZINC000482540246    0.1200
     51 H51       -10.4891   -2.8735   56.8353 H       1  ZINC000482540246    0.1200
     52 H52       -10.3754   -2.1216   54.4933 H       1  ZINC000482540246    0.1200
     53 H53       -16.7450    0.1660   51.3426 H       1  ZINC000482540246    0.1400
     54 H54       -18.6123   -1.3338   50.7813 H       1  ZINC000482540246    0.1600
@<TRIPOS>BOND
     1     1     2    1
     2     1    33    1
     3     1    34    1
     4     1    35    1
     5     2     3    1
     6     3    32   ar
     7     3     4   ar
     8     4     5   ar
     9     4    36    1
    10     5     6    1
    11     5    30   ar
    12     6     7    1
    13     6     8    1
    14     6     9    1
    15     8    37    1
    16     8    38    1
    17     8    39    1
    18     9    10   am
    19     9    40    1
    20    10    11    2
    21    10    12   am
    22    12    13    1
    23    12    41    1
    24    13    14    1
    25    13    15    1
    26    13    24    1
    27    15    16    1
    28    15    42    1
    29    15    43    1
    30    16    17    1
    31    17    22   ar
    32    17    18   ar
    33    18    19   ar
    34    18    44    1
    35    19    20   ar
    36    19    45    1
    37    20    21   ar
    38    20    46    1
    39    21    22   ar
    40    21    47    1
    41    22    23    1
    42    24    29   ar
    43    24    25   ar
    44    25    26   ar
    45    25    48    1
    46    26    27   ar
    47    26    49    1
    48    27    28   ar
    49    27    50    1
    50    28    29   ar
    51    28    51    1
    52    29    52    1
    53    30    31   ar
    54    30    53    1
    55    31    32   ar
    56    31    54    1
@<TRIPOS>SUBSTRUCTURE
     1 ZINC000482540246        1 TEMP              0 ****  ****    0 ROOT


##########                                Name:    ZINC000501032137
##########                DOCK_Rotatable_Bonds:                  10
##########                         Heavy_Atoms:                  25
##########                    Molecular_Weight:             407.307
##########                DOCK_Rotatable_Bonds:                  10
##########                       Formal_Charge:           0.0099998
##########                     HBond_Acceptors:                   5
##########                        HBond_Donors:                   1
##########                         Heavy_Atoms:                  25
##########                          Grid_Score:          -29.285158
##########                     Grid_vdw_energy:          -28.329300
##########                      Grid_es_energy:           -0.955858
##########           Internal_energy_repulsive:           13.700312

@<TRIPOS>MOLECULE
ZINC000501032137
 48 50 1 0 0
SMALL
USER_CHARGES


@<TRIPOS>ATOM
      1 C1        -12.2487   -0.0836   52.2830 C.3     1  ZINC000501032137   -0.1500
      2 C2        -10.9048   -0.6034   52.7979 C.3     1  ZINC000501032137   -0.1200
      3 C3        -10.0834    0.5643   53.3480 C.3     1  ZINC000501032137    0.0600
      4 O4         -8.8172    0.0830   53.8033 O.3     1  ZINC000501032137   -0.3800
      5 C5         -7.8649   -0.1255   52.7585 C.3     1  ZINC000501032137    0.0500
      6 C6         -7.2177    1.2096   52.3844 C.3     1  ZINC000501032137    0.1600
      7 H7         -7.9841    1.8971   52.0264 H       1  ZINC000501032137    0.1000
      8 C8         -6.1810    0.9827   51.2824 C.3     1  ZINC000501032137   -0.0900
      9 C9         -5.2198    2.1428   51.2504 C.ar    1  ZINC000501032137   -0.0600
     10 C10        -5.6998    3.4354   51.1546 C.ar    1  ZINC000501032137   -0.0900
     11 C11        -4.8183    4.5003   51.1253 C.ar    1  ZINC000501032137   -0.1100
     12 C12        -3.4569    4.2726   51.1917 C.ar    1  ZINC000501032137   -0.0900
     13 C13        -2.9760    2.9789   51.2876 C.ar    1  ZINC000501032137   -0.0800
     14 Br14       -1.1131    2.6667   51.3784 Br      1  ZINC000501032137   -0.0600
     15 C15        -3.8583    1.9144   51.3226 C.ar    1  ZINC000501032137   -0.0800
     16 N16        -6.5609    1.7810   53.5626 N.am    1  ZINC000501032137   -0.7100
     17 C17        -7.1195    2.8257   54.2053 C.2     1  ZINC000501032137    0.6100
     18 O18        -8.1696    3.2929   53.8081 O.2     1  ZINC000501032137   -0.5200
     19 C19        -6.4576    3.4018   55.3898 C.2     1  ZINC000501032137   -0.0800
     20 C20        -7.0338    4.1992   56.3302 C.2     1  ZINC000501032137    0.0800
     21 C21        -8.4681    4.6608   56.3580 C.3     1  ZINC000501032137   -0.0800
     22 C22        -9.5121    3.6897   56.9131 C.3     1  ZINC000501032137   -0.1700
     23 C23        -9.1009    4.9184   57.7270 C.3     1  ZINC000501032137   -0.1500
     24 O24        -6.0813    4.4961   57.2285 O.3     1  ZINC000501032137   -0.2000
     25 C25        -4.9449    3.8947   56.8491 C.2     1  ZINC000501032137    0.1800
     26 N26        -5.1571    3.2316   55.7520 N.2     1  ZINC000501032137   -0.4600
     27 H27       -12.7924    0.3898   53.1005 H       1  ZINC000501032137    0.0600
     28 H28       -12.0770    0.6449   51.4907 H       1  ZINC000501032137    0.0600
     29 H29       -12.8339   -0.9155   51.8911 H       1  ZINC000501032137    0.0600
     30 H30       -11.0766   -1.3320   53.5902 H       1  ZINC000501032137    0.0700
     31 H31       -10.3611   -1.0769   51.9804 H       1  ZINC000501032137    0.0700
     32 H32        -9.9299    1.3029   52.5614 H       1  ZINC000501032137    0.0500
     33 H33       -10.6175    1.0244   54.1794 H       1  ZINC000501032137    0.0500
     34 H34        -7.0962   -0.8186   53.1005 H       1  ZINC000501032137    0.0700
     35 H35        -8.3680   -0.5425   51.8861 H       1  ZINC000501032137    0.0600
     36 H36        -5.6329    0.0622   51.4830 H       1  ZINC000501032137    0.0900
     37 H37        -6.6858    0.9024   50.3196 H       1  ZINC000501032137    0.0800
     38 H38        -6.7637    3.6138   51.1024 H       1  ZINC000501032137    0.1200
     39 H39        -5.1938    5.5101   51.0501 H       1  ZINC000501032137    0.1300
     40 H40        -2.7684    5.1044   51.1685 H       1  ZINC000501032137    0.1300
     41 H41        -3.4833    0.9044   51.3978 H       1  ZINC000501032137    0.1200
     42 H42        -5.7239    1.4075   53.8801 H       1  ZINC000501032137    0.4100
     43 H43        -8.7698    5.3078   55.5343 H       1  ZINC000501032137    0.1500
     44 H44       -10.5009    3.6978   56.4544 H       1  ZINC000501032137    0.1100
     45 H45        -9.1616    2.7171   57.2582 H       1  ZINC000501032137    0.1000
     46 H46        -8.4799    4.7540   58.6075 H       1  ZINC000501032137    0.1000
     47 H47        -9.8193    5.7346   57.8039 H       1  ZINC000501032137    0.1100
     48 H48        -4.0028    3.9497   57.3742 H       1  ZINC000501032137    0.2500
@<TRIPOS>BOND
     1     1     2    1
     2     1    27    1
     3     1    28    1
     4     1    29    1
     5     2     3    1
     6     2    30    1
     7     2    31    1
     8     3     4    1
     9     3    32    1
    10     3    33    1
    11     4     5    1
    12     5     6    1
    13     5    34    1
    14     5    35    1
    15     6     7    1
    16     6     8    1
    17     6    16    1
    18     8     9    1
    19     8    36    1
    20     8    37    1
    21     9    15   ar
    22     9    10   ar
    23    10    11   ar
    24    10    38    1
    25    11    12   ar
    26    11    39    1
    27    12    13   ar
    28    12    40    1
    29    13    14    1
    30    13    15   ar
    31    15    41    1
    32    16    17   am
    33    16    42    1
    34    17    18    2
    35    17    19    1
    36    19    26    1
    37    19    20    2
    38    20    21    1
    39    20    24    1
    40    21    23    1
    41    21    22    1
    42    21    43    1
    43    22    23    1
    44    22    44    1
    45    22    45    1
    46    23    46    1
    47    23    47    1
    48    24    25    1
    49    25    26    2
    50    25    48    1
@<TRIPOS>SUBSTRUCTURE
     1 ZINC000501032137        1 TEMP              0 ****  ****    0 ROOT


##########                                Name:    ZINC000864730443
##########                DOCK_Rotatable_Bonds:                  10
##########                         Heavy_Atoms:                  25
##########                    Molecular_Weight:             356.462
##########                DOCK_Rotatable_Bonds:                  10
##########                       Formal_Charge:           0.0299988
##########                     HBond_Acceptors:                   7
##########                        HBond_Donors:                   2
##########                         Heavy_Atoms:                  25
##########                          Grid_Score:          -29.277960
##########                     Grid_vdw_energy:          -28.514708
##########                      Grid_es_energy:           -0.763252
##########           Internal_energy_repulsive:           23.510384

@<TRIPOS>MOLECULE
ZINC000864730443
 57 58 1 0 0
SMALL
USER_CHARGES


@<TRIPOS>ATOM
      1 C1        -16.5544   -2.6643   57.2071 C.3     1  ZINC000864730443   -0.1800
      2 C2        -17.0391   -2.1211   58.5528 C.3     1  ZINC000864730443    0.1400
      3 C3        -17.1079   -0.5939   58.4914 C.3     1  ZINC000864730443   -0.1800
      4 C4        -18.4291   -2.6823   58.8586 C.3     1  ZINC000864730443   -0.1400
      5 O5        -16.1144   -2.5223   59.5980 O.3     1  ZINC000864730443   -0.3600
      6 C6        -15.1190   -1.6658   59.8954 C.2     1  ZINC000864730443    0.6500
      7 O7        -15.2486   -0.8786   60.8120 O.2     1  ZINC000864730443   -0.5700
      8 N8        -13.9792   -1.6815   59.1766 N.am    1  ZINC000864730443   -0.7100
      9 C9        -12.8954   -0.7508   59.5014 C.3     1  ZINC000864730443    0.1500
     10 C10       -11.6786   -1.0598   58.6269 C.3     1  ZINC000864730443   -0.1300
     11 C11       -10.5142   -0.2095   59.0654 C.2     1  ZINC000864730443    0.5300
     12 O12       -10.1810    0.7505   58.4032 O.2     1  ZINC000864730443   -0.5300
     13 N13        -9.8432   -0.5158   60.1934 N.am    1  ZINC000864730443   -0.7200
     14 C14        -8.7112    0.3109   60.6197 C.3     1  ZINC000864730443    0.1200
     15 C15        -9.2326    1.6077   61.2420 C.3     1  ZINC000864730443   -0.1300
     16 C16        -9.0108    1.5723   62.7554 C.3     1  ZINC000864730443    0.0800
     17 H17        -9.2878    2.5281   63.2002 H       1  ZINC000864730443    0.0800
     18 C18        -9.8331    0.4240   63.3928 C.3     1  ZINC000864730443   -0.1500
     19 C19        -9.0125    0.1552   64.6837 C.3     1  ZINC000864730443   -0.1600
     20 C20        -7.5672    0.4317   64.2168 C.3     1  ZINC000864730443    0.0500
     21 O21        -7.6395    1.2635   63.0513 O.3     1  ZINC000864730443   -0.3800
     22 C22       -11.3128   -2.5409   58.7637 C.3     1  ZINC000864730443   -0.1000
     23 C23       -10.1435   -2.8555   57.8255 C.3     1  ZINC000864730443   -0.1600
     24 C24       -10.5346   -2.4836   56.3929 C.3     1  ZINC000864730443    0.0600
     25 O25       -10.8927   -1.1011   56.3419 O.3     1  ZINC000864730443   -0.3700
     26 C26       -12.0104   -0.7572   57.1634 C.3     1  ZINC000864730443    0.0800
     27 H27       -15.5642   -2.2643   56.9892 H       1  ZINC000864730443    0.0900
     28 H28       -16.5054   -3.7523   57.2508 H       1  ZINC000864730443    0.0600
     29 H29       -17.2485   -2.3631   56.4225 H       1  ZINC000864730443    0.0700
     30 H30       -17.8020   -0.2928   57.7068 H       1  ZINC000864730443    0.0700
     31 H31       -17.4532   -0.2069   59.4501 H       1  ZINC000864730443    0.0600
     32 H32       -16.1176   -0.1940   58.2735 H       1  ZINC000864730443    0.0900
     33 H33       -18.3801   -3.7704   58.9024 H       1  ZINC000864730443    0.0700
     34 H34       -18.7744   -2.2954   59.8174 H       1  ZINC000864730443    0.0700
     35 H35       -19.1232   -2.3812   58.0740 H       1  ZINC000864730443    0.0800
     36 H36       -13.8762   -2.3090   58.4441 H       1  ZINC000864730443    0.4100
     37 H37       -13.2262    0.2711   59.3158 H       1  ZINC000864730443    0.0900
     38 H38       -12.6252   -0.8601   60.5517 H       1  ZINC000864730443    0.0800
     39 H39       -10.1097   -1.2835   60.7230 H       1  ZINC000864730443    0.4000
     40 H40        -8.1207   -0.2340   61.3563 H       1  ZINC000864730443    0.0700
     41 H41        -8.0882    0.5466   59.7569 H       1  ZINC000864730443    0.0700
     42 H42        -8.6969    2.4560   60.8160 H       1  ZINC000864730443    0.0800
     43 H43       -10.2976    1.7085   61.0331 H       1  ZINC000864730443    0.0800
     44 H44       -10.8451    0.7510   63.6314 H       1  ZINC000864730443    0.0900
     45 H45        -9.8479   -0.4539   62.7469 H       1  ZINC000864730443    0.0800
     46 H46        -9.3020    0.8435   65.4777 H       1  ZINC000864730443    0.0800
     47 H47        -9.1247   -0.8800   65.0062 H       1  ZINC000864730443    0.0800
     48 H48        -7.0167    0.9472   65.0037 H       1  ZINC000864730443    0.0700
     49 H49        -7.0718   -0.5077   63.9717 H       1  ZINC000864730443    0.0700
     50 H50       -11.0212   -2.7510   59.7928 H       1  ZINC000864730443    0.0800
     51 H51       -12.1720   -3.1552   58.4942 H       1  ZINC000864730443    0.0800
     52 H52        -9.2696   -2.2776   58.1263 H       1  ZINC000864730443    0.0900
     53 H53        -9.9125   -3.9196   57.8755 H       1  ZINC000864730443    0.0800
     54 H54        -9.6911   -2.6654   55.7270 H       1  ZINC000864730443    0.1000
     55 H55       -11.3835   -3.0908   56.0786 H       1  ZINC000864730443    0.0500
     56 H56       -12.8786   -1.3419   56.8590 H       1  ZINC000864730443    0.0700
     57 H57       -12.2300    0.3046   57.0523 H       1  ZINC000864730443    0.1000
@<TRIPOS>BOND
     1     1     2    1
     2     1    27    1
     3     1    28    1
     4     1    29    1
     5     2     3    1
     6     2     4    1
     7     2     5    1
     8     3    30    1
     9     3    31    1
    10     3    32    1
    11     4    33    1
    12     4    34    1
    13     4    35    1
    14     5     6    1
    15     6     7    2
    16     6     8   am
    17     8     9    1
    18     8    36    1
    19     9    10    1
    20     9    37    1
    21     9    38    1
    22    10    26    1
    23    10    11    1
    24    10    22    1
    25    11    12    2
    26    11    13   am
    27    13    14    1
    28    13    39    1
    29    14    15    1
    30    14    40    1
    31    14    41    1
    32    15    16    1
    33    15    42    1
    34    15    43    1
    35    16    17    1
    36    16    21    1
    37    16    18    1
    38    18    19    1
    39    18    44    1
    40    18    45    1
    41    19    20    1
    42    19    46    1
    43    19    47    1
    44    20    21    1
    45    20    48    1
    46    20    49    1
    47    22    23    1
    48    22    50    1
    49    22    51    1
    50    23    24    1
    51    23    52    1
    52    23    53    1
    53    24    25    1
    54    24    54    1
    55    24    55    1
    56    25    26    1
    57    26    56    1
    58    26    57    1
@<TRIPOS>SUBSTRUCTURE
     1 ZINC000864730443        1 TEMP              0 ****  ****    0 ROOT


##########                                Name:    ZINC000486710336
##########                DOCK_Rotatable_Bonds:                   6
##########                         Heavy_Atoms:                  31
##########                    Molecular_Weight:             420.555
##########                DOCK_Rotatable_Bonds:                   6
##########                       Formal_Charge:         1.49012e-07
##########                     HBond_Acceptors:                   6
##########                        HBond_Donors:                   1
##########                         Heavy_Atoms:                  31
##########                          Grid_Score:          -29.262981
##########                     Grid_vdw_energy:          -28.456926
##########                      Grid_es_energy:           -0.806055
##########           Internal_energy_repulsive:           59.240246

@<TRIPOS>MOLECULE
ZINC000486710336
 63 67 1 0 0
SMALL
USER_CHARGES


@<TRIPOS>ATOM
      1 C1          1.8169    2.0786   48.6777 C.3     1  ZINC000486710336    0.1000
      2 N2          1.8298    2.5070   50.0786 N.pl3   1  ZINC000486710336   -0.3900
      3 N3          2.9573    2.8992   50.8113 N.2     1  ZINC000486710336   -0.2800
      4 C4          2.5750    3.2116   52.0231 C.2     1  ZINC000486710336    0.1000
      5 C5          3.4740    3.6856   53.1358 C.3     1  ZINC000486710336   -0.0100
      6 C6          2.9796    3.1440   54.5001 C.3     1  ZINC000486710336   -0.1200
      7 C7          4.2615    3.1841   55.3686 C.3     1  ZINC000486710336   -0.1200
      8 C8          5.3878    2.7676   54.4002 C.3     1  ZINC000486710336   -0.1200
      9 C9          4.8871    3.0865   52.9805 C.3     1  ZINC000486710336   -0.1100
     10 C10         1.1925    3.0315   52.1109 C.2     1  ZINC000486710336   -0.2600
     11 C11         0.7495    2.6003   50.8971 C.2     1  ZINC000486710336    0.3000
     12 N12        -0.5677    2.3025   50.5595 N.am    1  ZINC000486710336   -0.6200
     13 C13        -1.5758    3.0432   51.0608 C.2     1  ZINC000486710336    0.5100
     14 O14        -1.3353    3.9692   51.8081 O.2     1  ZINC000486710336   -0.4800
     15 C15        -2.9885    2.7249   50.6974 C.2     1  ZINC000486710336    0.5300
     16 O16        -3.2246    1.8562   49.8834 O.2     1  ZINC000486710336   -0.5100
     17 N17        -4.0015    3.4023   51.2730 N.am    1  ZINC000486710336   -0.5800
     18 C18        -3.8677    4.4806   52.2690 C.3     1  ZINC000486710336    0.1000
     19 C19        -5.2963    4.9209   52.6588 C.3     1  ZINC000486710336   -0.0600
     20 H20        -5.6078    5.7854   52.0725 H       1  ZINC000486710336    0.1000
     21 C21        -5.3799    5.2196   54.1335 C.ar    1  ZINC000486710336   -0.0700
     22 C22        -6.6072    5.2231   54.7695 C.ar    1  ZINC000486710336   -0.1100
     23 C23        -6.6839    5.4971   56.1222 C.ar    1  ZINC000486710336   -0.1200
     24 C24        -5.5332    5.7671   56.8390 C.ar    1  ZINC000486710336   -0.1200
     25 C25        -4.3058    5.7628   56.2033 C.ar    1  ZINC000486710336   -0.1200
     26 C26        -4.2287    5.4845   54.8514 C.ar    1  ZINC000486710336   -0.1100
     27 C27        -6.1512    3.6684   52.2946 C.3     1  ZINC000486710336   -0.0800
     28 H28        -7.1994    3.9098   52.1184 H       1  ZINC000486710336    0.1100
     29 C29        -5.9672    2.6667   53.4366 C.3     1  ZINC000486710336   -0.1100
     30 C30        -6.4087    1.2702   53.0054 C.3     1  ZINC000486710336   -0.1200
     31 C31        -5.5244    0.8141   51.8399 C.3     1  ZINC000486710336   -0.1100
     32 C32        -5.7541    1.7591   50.6605 C.3     1  ZINC000486710336   -0.1400
     33 C33        -5.4296    3.2009   51.0145 C.3     1  ZINC000486710336    0.1400
     34 H34        -5.7152    3.8369   50.1765 H       1  ZINC000486710336    0.0800
     35 H35         1.6731    2.9462   48.0338 H       1  ZINC000486710336    0.0800
     36 H36         2.7655    1.5995   48.4356 H       1  ZINC000486710336    0.1000
     37 H37         1.0023    1.3713   48.5216 H       1  ZINC000486710336    0.0800
     38 H38         3.5208    4.7745   53.1495 H       1  ZINC000486710336    0.0900
     39 H39         2.2098    3.7933   54.9174 H       1  ZINC000486710336    0.0700
     40 H40         2.6125    2.1226   54.4002 H       1  ZINC000486710336    0.0800
     41 H41         4.4357    4.1920   55.7454 H       1  ZINC000486710336    0.0700
     42 H42         4.1858    2.4754   56.1933 H       1  ZINC000486710336    0.0700
     43 H43         6.2929    3.3364   54.6135 H       1  ZINC000486710336    0.0600
     44 H44         5.5861    1.7000   54.4952 H       1  ZINC000486710336    0.0600
     45 H45         4.8425    2.1735   52.3866 H       1  ZINC000486710336    0.0700
     46 H46         5.5492    3.8099   52.5048 H       1  ZINC000486710336    0.0700
     47 H47         0.5827    3.2068   52.9849 H       1  ZINC000486710336    0.1700
     48 H48        -0.7599    1.5619   49.9633 H       1  ZINC000486710336    0.4200
     49 H49        -3.3409    4.1102   53.1484 H       1  ZINC000486710336    0.0900
     50 H50        -3.3258    5.3210   51.8355 H       1  ZINC000486710336    0.0800
     51 H51        -7.5062    5.0121   54.2094 H       1  ZINC000486710336    0.1200
     52 H52        -7.6429    5.5004   56.6189 H       1  ZINC000486710336    0.1200
     53 H53        -5.5933    5.9819   57.8958 H       1  ZINC000486710336    0.1200
     54 H54        -3.4068    5.9742   56.7633 H       1  ZINC000486710336    0.1200
     55 H55        -3.2697    5.4812   54.3546 H       1  ZINC000486710336    0.1200
     56 H56        -4.9160    2.6384   53.7234 H       1  ZINC000486710336    0.0700
     57 H57        -6.5637    2.9839   54.2919 H       1  ZINC000486710336    0.0700
     58 H58        -6.2991    0.5780   53.8403 H       1  ZINC000486710336    0.0600
     59 H59        -7.4502    1.2985   52.6850 H       1  ZINC000486710336    0.0600
     60 H60        -4.4768    0.8482   52.1389 H       1  ZINC000486710336    0.0500
     61 H61        -5.7915   -0.2029   51.5527 H       1  ZINC000486710336    0.0600
     62 H62        -5.1251    1.4484   49.8263 H       1  ZINC000486710336    0.1000
     63 H63        -6.7997    1.7047   50.3577 H       1  ZINC000486710336    0.0700
@<TRIPOS>BOND
     1     1     2    1
     2     1    35    1
     3     1    36    1
     4     1    37    1
     5     2    11    1
     6     2     3    1
     7     3     4    2
     8     4     5    1
     9     4    10    1
    10     5     9    1
    11     5     6    1
    12     5    38    1
    13     6     7    1
    14     6    39    1
    15     6    40    1
    16     7     8    1
    17     7    41    1
    18     7    42    1
    19     8     9    1
    20     8    43    1
    21     8    44    1
    22     9    45    1
    23     9    46    1
    24    10    11    2
    25    10    47    1
    26    11    12    1
    27    12    13   am
    28    12    48    1
    29    13    14    2
    30    13    15    1
    31    15    16    2
    32    15    17   am
    33    17    33    1
    34    17    18    1
    35    18    19    1
    36    18    49    1
    37    18    50    1
    38    19    20    1
    39    19    21    1
    40    19    27    1
    41    21    26   ar
    42    21    22   ar
    43    22    23   ar
    44    22    51    1
    45    23    24   ar
    46    23    52    1
    47    24    25   ar
    48    24    53    1
    49    25    26   ar
    50    25    54    1
    51    26    55    1
    52    27    28    1
    53    27    33    1
    54    27    29    1
    55    29    30    1
    56    29    56    1
    57    29    57    1
    58    30    31    1
    59    30    58    1
    60    30    59    1
    61    31    32    1
    62    31    60    1
    63    31    61    1
    64    32    33    1
    65    32    62    1
    66    32    63    1
    67    33    34    1
@<TRIPOS>SUBSTRUCTURE
     1 ZINC000486710336        1 TEMP              0 ****  ****    0 ROOT


##########                                Name:    ZINC000906038034
##########                DOCK_Rotatable_Bonds:                   5
##########                         Heavy_Atoms:                  23
##########                    Molecular_Weight:             387.428
##########                DOCK_Rotatable_Bonds:                   5
##########                       Formal_Charge:         -0.00999987
##########                     HBond_Acceptors:                  12
##########                        HBond_Donors:                   0
##########                         Heavy_Atoms:                  23
##########                          Grid_Score:          -29.230133
##########                     Grid_vdw_energy:          -26.798244
##########                      Grid_es_energy:           -2.431888
##########           Internal_energy_repulsive:            2.919999

@<TRIPOS>MOLECULE
ZINC000906038034
 35 36 1 0 0
SMALL
USER_CHARGES


@<TRIPOS>ATOM
      1 C1          2.3682    1.1692   47.0871 C.3     1  ZINC000906038034    0.1000
      2 N2          1.9517    1.9574   48.2497 N.pl3   1  ZINC000906038034   -0.3700
      3 C3          2.6381    2.9829   48.7987 C.2     1  ZINC000906038034    0.0600
      4 C4          1.9272    3.4470   49.8486 C.2     1  ZINC000906038034   -0.2500
      5 C5          0.7522    2.6739   49.9504 C.2     1  ZINC000906038034    0.1200
      6 C6         -0.3139    2.8393   50.9621 C.2     1  ZINC000906038034    0.1500
      7 N7         -1.4779    2.2561   50.9355 N.2     1  ZINC000906038034   -0.4300
      8 C8         -2.3017    2.5226   51.9235 C.2     1  ZINC000906038034    0.0600
      9 C9         -3.6762    1.9104   52.0066 C.3     1  ZINC000906038034   -0.5300
     10 S10        -4.6963    2.5268   50.6391 S.o2    1  ZINC000906038034    2.4200
     11 O11        -4.9137    3.9184   50.8278 O.2     1  ZINC000906038034   -0.9100
     12 O12        -4.1357    2.0719   49.4152 O.2     1  ZINC000906038034   -0.9200
     13 C13        -6.2623    1.6544   50.9169 C.3     1  ZINC000906038034   -0.6100
     14 C14        -7.0137    2.3116   52.0764 C.3     1  ZINC000906038034   -0.4500
     15 S15        -7.6375    1.0288   53.1971 S.o     1  ZINC000906038034    1.3300
     16 O16        -8.5828    0.2194   52.5110 O.2     1  ZINC000906038034   -0.7600
     17 C17        -8.4836    1.9875   54.4838 C.3     1  ZINC000906038034    0.1200
     18 F18        -9.5102    2.7413   53.9048 F       1  ZINC000906038034   -0.1900
     19 F19        -9.0246    1.1158   55.4349 F       1  ZINC000906038034   -0.1700
     20 F20        -7.5685    2.8448   55.1042 F       1  ZINC000906038034   -0.1600
     21 C21        -1.8450    3.3700   52.8507 C.2     1  ZINC000906038034   -0.2300
     22 S22        -0.2102    3.8510   52.4006 S.3     1  ZINC000906038034    0.1600
     23 N23         0.7697    1.7817   48.9805 N.2     1  ZINC000906038034   -0.2400
     24 H24         1.9888    1.6349   46.1775 H       1  ZINC000906038034    0.0800
     25 H25         3.4568    1.1279   47.0472 H       1  ZINC000906038034    0.0900
     26 H26         1.9691    0.1584   47.1715 H       1  ZINC000906038034    0.0900
     27 H27         3.5893    3.3646   48.4579 H       1  ZINC000906038034    0.1800
     28 H28         2.2086    4.2645   50.4958 H       1  ZINC000906038034    0.1600
     29 H29        -3.5955    0.8255   51.9393 H       1  ZINC000906038034    0.1500
     30 H30        -4.1383    2.1821   52.9557 H       1  ZINC000906038034    0.1600
     31 H31        -6.8714    1.7047   50.0143 H       1  ZINC000906038034    0.1500
     32 H32        -6.0591    0.6116   51.1603 H       1  ZINC000906038034    0.1500
     33 H33        -6.3375    2.9714   52.6199 H       1  ZINC000906038034    0.1600
     34 H34        -7.8502    2.8908   51.6855 H       1  ZINC000906038034    0.1300
     35 H35        -2.3833    3.6999   53.7270 H       1  ZINC000906038034    0.1900
@<TRIPOS>BOND
     1     1     2    1
     2     1    24    1
     3     1    25    1
     4     1    26    1
     5     2    23    1
     6     2     3    1
     7     3     4    2
     8     3    27    1
     9     4     5    1
    10     4    28    1
    11     5     6    1
    12     5    23    2
    13     6    22    1
    14     6     7    2
    15     7     8    1
    16     8     9    1
    17     8    21    2
    18     9    10    1
    19     9    29    1
    20     9    30    1
    21    10    11    2
    22    10    12    2
    23    10    13    1
    24    13    14    1
    25    13    31    1
    26    13    32    1
    27    14    15    1
    28    14    33    1
    29    14    34    1
    30    15    16    2
    31    15    17    1
    32    17    18    1
    33    17    19    1
    34    17    20    1
    35    21    22    1
    36    21    35    1
@<TRIPOS>SUBSTRUCTURE
     1 ZINC000906038034        1 TEMP              0 ****  ****    0 ROOT


##########                                Name:    ZINC000854704989
##########                DOCK_Rotatable_Bonds:                   5
##########                         Heavy_Atoms:                  22
##########                    Molecular_Weight:             365.227
##########                DOCK_Rotatable_Bonds:                   5
##########                       Formal_Charge:        -1.78814e-07
##########                     HBond_Acceptors:                   5
##########                        HBond_Donors:                   1
##########                         Heavy_Atoms:                  22
##########                          Grid_Score:          -29.209080
##########                     Grid_vdw_energy:          -28.190676
##########                      Grid_es_energy:           -1.018405
##########           Internal_energy_repulsive:            6.642964

@<TRIPOS>MOLECULE
ZINC000854704989
 39 41 1 0 0
SMALL
USER_CHARGES


@<TRIPOS>ATOM
      1 O1         -0.9506    1.5123   48.6100 O.2     1  ZINC000854704989   -0.5300
      2 C2         -0.5334    1.9258   49.6742 C.2     1  ZINC000854704989    0.5700
      3 N3          0.7934    2.0500   49.8755 N.am    1  ZINC000854704989   -0.7300
      4 C4          1.7331    1.6807   48.8140 C.3     1  ZINC000854704989    0.2000
      5 C5          3.0410    1.2519   49.4276 C.2     1  ZINC000854704989   -0.0500
      6 C6          3.2170    0.6770   50.6410 C.2     1  ZINC000854704989   -0.1700
      7 C7          4.6154    0.4796   50.7260 C.2     1  ZINC000854704989    0.0000
      8 Br8         5.5657   -0.2886   52.1692 Br      1  ZINC000854704989    0.0600
      9 N9          5.1183    0.9318   49.6127 N.2     1  ZINC000854704989   -0.3200
     10 O10         4.2587    1.3589   48.8774 O.3     1  ZINC000854704989    0.1300
     11 C11        -1.4817    2.2985   50.7456 C.ar    1  ZINC000854704989   -0.1300
     12 C12        -1.0059    2.6877   51.9985 C.ar    1  ZINC000854704989   -0.0900
     13 C13        -1.8962    3.0346   52.9938 C.ar    1  ZINC000854704989   -0.1200
     14 C14        -3.2578    2.9968   52.7522 C.ar    1  ZINC000854704989   -0.0900
     15 C15        -3.7361    2.6118   51.5120 C.ar    1  ZINC000854704989   -0.0800
     16 C16        -5.2211    2.5737   51.2577 C.3     1  ZINC000854704989   -0.0800
     17 H17        -5.4115    2.1383   50.2768 H       1  ZINC000854704989    0.0900
     18 C18        -5.7851    3.9971   51.3043 C.3     1  ZINC000854704989   -0.1100
     19 C19        -7.3049    3.9383   51.1222 C.3     1  ZINC000854704989   -0.1600
     20 C20        -7.9065    3.0392   52.2055 C.3     1  ZINC000854704989    0.0600
     21 O21        -7.3167    1.7400   52.1260 O.3     1  ZINC000854704989   -0.3800
     22 C22        -5.9029    1.7259   52.3348 C.3     1  ZINC000854704989    0.0700
     23 C23        -2.8567    2.2680   50.5066 C.ar    1  ZINC000854704989   -0.0500
     24 H24         1.1262    2.3837   50.7233 H       1  ZINC000854704989    0.4000
     25 H25         1.3181    0.8583   48.2313 H       1  ZINC000854704989    0.1100
     26 H26         1.9012    2.5386   48.1630 H       1  ZINC000854704989    0.1000
     27 H27         2.4644    0.4274   51.3742 H       1  ZINC000854704989    0.1900
     28 H28         0.0568    2.7169   52.1886 H       1  ZINC000854704989    0.1200
     29 H29        -1.5293    3.3361   53.9638 H       1  ZINC000854704989    0.1300
     30 H30        -3.9505    3.2688   53.5349 H       1  ZINC000854704989    0.1300
     31 H31        -5.5505    4.4509   52.2672 H       1  ZINC000854704989    0.0700
     32 H32        -5.3446    4.5904   50.5031 H       1  ZINC000854704989    0.0700
     33 H33        -7.7213    4.9419   51.2093 H       1  ZINC000854704989    0.0800
     34 H34        -7.5384    3.5302   50.1390 H       1  ZINC000854704989    0.0700
     35 H35        -7.7073    3.4695   53.1870 H       1  ZINC000854704989    0.0500
     36 H36        -8.9831    2.9594   52.0551 H       1  ZINC000854704989    0.1000
     37 H37        -5.5374    0.7007   52.2780 H       1  ZINC000854704989    0.1000
     38 H38        -5.6765    2.1389   53.3178 H       1  ZINC000854704989    0.0500
     39 H39        -3.2312    1.9681   49.5390 H       1  ZINC000854704989    0.1400
@<TRIPOS>BOND
     1     1     2    2
     2     2     3   am
     3     2    11    1
     4     3     4    1
     5     3    24    1
     6     4     5    1
     7     4    25    1
     8     4    26    1
     9     5    10    1
    10     5     6    2
    11     6     7    1
    12     6    27    1
    13     7     8    1
    14     7     9    2
    15     9    10    1
    16    11    23   ar
    17    11    12   ar
    18    12    13   ar
    19    12    28    1
    20    13    14   ar
    21    13    29    1
    22    14    15   ar
    23    14    30    1
    24    15    16    1
    25    15    23   ar
    26    16    17    1
    27    16    22    1
    28    16    18    1
    29    18    19    1
    30    18    31    1
    31    18    32    1
    32    19    20    1
    33    19    33    1
    34    19    34    1
    35    20    21    1
    36    20    35    1
    37    20    36    1
    38    21    22    1
    39    22    37    1
    40    22    38    1
    41    23    39    1
@<TRIPOS>SUBSTRUCTURE
     1 ZINC000854704989        1 TEMP              0 ****  ****    0 ROOT


##########                                Name:    ZINC000081577146
##########                DOCK_Rotatable_Bonds:                   4
##########                         Heavy_Atoms:                  25
##########                    Molecular_Weight:             355.464
##########                DOCK_Rotatable_Bonds:                   4
##########                       Formal_Charge:                0.02
##########                     HBond_Acceptors:                   7
##########                        HBond_Donors:                   0
##########                         Heavy_Atoms:                  25
##########                          Grid_Score:          -29.176952
##########                     Grid_vdw_energy:          -30.164999
##########                      Grid_es_energy:            0.988046
##########           Internal_energy_repulsive:           12.914674

@<TRIPOS>MOLECULE
ZINC000081577146
 46 49 1 0 0
SMALL
USER_CHARGES


@<TRIPOS>ATOM
      1 C1         -6.4670   -0.8212   51.8823 C.3     1  ZINC000081577146   -0.0700
      2 C2         -5.8554    0.4568   51.3688 C.2     1  ZINC000081577146    0.2900
      3 N3         -6.4205    1.1346   50.4125 N.2     1  ZINC000081577146   -0.4800
      4 S4         -5.4182    2.4811   50.1464 S.3     1  ZINC000081577146    0.1900
      5 C5         -4.2763    2.0445   51.3606 C.2     1  ZINC000081577146    0.2700
      6 N6         -3.1272    2.7255   51.7198 N.3     1  ZINC000081577146   -0.4300
      7 C7         -3.2591    4.1629   51.4441 C.3     1  ZINC000081577146    0.0700
      8 C8         -2.0020    4.8897   51.9275 C.3     1  ZINC000081577146    0.0500
      9 N9         -0.8247    4.3319   51.2475 N.3     1  ZINC000081577146   -0.5200
     10 C10         0.3956    5.0551   51.6290 C.3     1  ZINC000081577146    0.1900
     11 H11         0.1681    6.1145   51.7477 H       1  ZINC000081577146    0.0700
     12 C12         1.4543    4.8799   50.5384 C.3     1  ZINC000081577146   -0.1500
     13 C13         0.9195    4.5051   52.9306 C.2     1  ZINC000081577146    0.1900
     14 N14         2.1334    4.0771   53.1372 N.2     1  ZINC000081577146   -0.4500
     15 C15         2.2374    3.6625   54.4087 C.2     1  ZINC000081577146   -0.0200
     16 C16         1.0292    3.8485   54.9994 C.2     1  ZINC000081577146    0.0000
     17 C17         0.6752    3.5332   56.3995 C.ar    1  ZINC000081577146   -0.0200
     18 C18         1.5998    2.8985   57.2304 C.ar    1  ZINC000081577146   -0.1000
     19 C19         1.2632    2.6074   58.5363 C.ar    1  ZINC000081577146   -0.1200
     20 C20         0.0122    2.9429   59.0226 C.ar    1  ZINC000081577146   -0.1100
     21 C21        -0.9091    3.5717   58.2042 C.ar    1  ZINC000081577146   -0.1100
     22 C22        -0.5831    3.8740   56.8981 C.ar    1  ZINC000081577146   -0.0900
     23 O23         0.2141    4.3825   54.0633 O.3     1  ZINC000081577146   -0.2000
     24 C24        -0.6928    2.8943   51.5232 C.3     1  ZINC000081577146    0.0600
     25 C25        -1.9500    2.1675   51.0398 C.3     1  ZINC000081577146    0.0500
     26 N26        -4.7384    0.9246   51.8756 N.2     1  ZINC000081577146   -0.5400
     27 H27        -7.1529   -0.5935   52.6983 H       1  ZINC000081577146    0.0900
     28 H28        -7.0118   -1.3129   51.0763 H       1  ZINC000081577146    0.0900
     29 H29        -5.6788   -1.4816   52.2438 H       1  ZINC000081577146    0.0900
     30 H30        -3.3792    4.3180   50.3719 H       1  ZINC000081577146    0.0700
     31 H31        -4.1304    4.5553   51.9685 H       1  ZINC000081577146    0.1100
     32 H32        -2.0851    5.9520   51.6979 H       1  ZINC000081577146    0.1000
     33 H33        -1.8967    4.7573   53.0043 H       1  ZINC000081577146    0.0600
     34 H34         1.6819    3.8206   50.4198 H       1  ZINC000081577146    0.0800
     35 H35         1.0754    5.2778   49.5970 H       1  ZINC000081577146    0.0800
     36 H36         2.3598    5.4166   50.8214 H       1  ZINC000081577146    0.0700
     37 H37         3.1212    3.2551   54.8771 H       1  ZINC000081577146    0.1900
     38 H38         2.5765    2.6355   56.8518 H       1  ZINC000081577146    0.1300
     39 H39         1.9778    2.1163   59.1802 H       1  ZINC000081577146    0.1300
     40 H40        -0.2465    2.7125   60.0456 H       1  ZINC000081577146    0.1300
     41 H41        -1.8843    3.8303   58.5898 H       1  ZINC000081577146    0.1300
     42 H42        -1.3030    4.3653   56.2604 H       1  ZINC000081577146    0.1300
     43 H43         0.1784    2.5020   50.9988 H       1  ZINC000081577146    0.0900
     44 H44        -0.5727    2.7393   52.5954 H       1  ZINC000081577146    0.0500
     45 H45        -1.8668    1.1052   51.2694 H       1  ZINC000081577146    0.1000
     46 H46        -2.0553    2.3000   49.9631 H       1  ZINC000081577146    0.0800
@<TRIPOS>BOND
     1     1     2    1
     2     1    27    1
     3     1    28    1
     4     1    29    1
     5     2    26    1
     6     2     3    2
     7     3     4    1
     8     4     5    1
     9     5     6    1
    10     5    26    2
    11     6    25    1
    12     6     7    1
    13     7     8    1
    14     7    30    1
    15     7    31    1
    16     8     9    1
    17     8    32    1
    18     8    33    1
    19     9    10    1
    20     9    24    1
    21    10    11    1
    22    10    12    1
    23    10    13    1
    24    12    34    1
    25    12    35    1
    26    12    36    1
    27    13    23    1
    28    13    14    2
    29    14    15    1
    30    15    16    2
    31    15    37    1
    32    16    17    1
    33    16    23    1
    34    17    22   ar
    35    17    18   ar
    36    18    19   ar
    37    18    38    1
    38    19    20   ar
    39    19    39    1
    40    20    21   ar
    41    20    40    1
    42    21    22   ar
    43    21    41    1
    44    22    42    1
    45    24    25    1
    46    24    43    1
    47    24    44    1
    48    25    45    1
    49    25    46    1
@<TRIPOS>SUBSTRUCTURE
     1 ZINC000081577146        1 TEMP              0 ****  ****    0 ROOT


##########                                Name:    ZINC000967287417
##########                DOCK_Rotatable_Bonds:                   7
##########                         Heavy_Atoms:                  25
##########                    Molecular_Weight:             347.414
##########                DOCK_Rotatable_Bonds:                   7
##########                       Formal_Charge:          -0.0200002
##########                     HBond_Acceptors:                   7
##########                        HBond_Donors:                   1
##########                         Heavy_Atoms:                  25
##########                          Grid_Score:          -29.176327
##########                     Grid_vdw_energy:          -28.310678
##########                      Grid_es_energy:           -0.865649
##########           Internal_energy_repulsive:            6.974801

@<TRIPOS>MOLECULE
ZINC000967287417
 50 52 1 0 0
SMALL
USER_CHARGES


@<TRIPOS>ATOM
      1 C1          1.1325    2.1008   58.0712 C.3     1  ZINC000967287417    0.0300
      2 O2          0.0516    2.9688   57.7239 O.3     1  ZINC000967287417   -0.3900
      3 C3         -1.2264    2.3295   57.7124 C.3     1  ZINC000967287417    0.1400
      4 C4         -2.2665    3.2951   57.2056 C.2     1  ZINC000967287417    0.0100
      5 C5         -2.8079    4.3112   57.9130 C.2     1  ZINC000967287417   -0.1900
      6 C6         -3.7270    4.9569   57.0712 C.2     1  ZINC000967287417   -0.1200
      7 C7         -3.6994    4.2937   55.8779 C.2     1  ZINC000967287417   -0.0700
      8 C8         -4.5004    4.6181   54.6930 C.2     1  ZINC000967287417    0.6100
      9 O9         -4.5881    5.7714   54.3148 O.2     1  ZINC000967287417   -0.5200
     10 N10        -5.1395    3.6388   54.0228 N.am    1  ZINC000967287417   -0.7000
     11 C11        -5.9382    3.9626   52.8381 C.3     1  ZINC000967287417    0.1600
     12 H12        -6.3164    4.9815   52.9216 H       1  ZINC000967287417    0.1000
     13 C13        -5.0668    3.8422   51.5859 C.3     1  ZINC000967287417    0.0400
     14 N14        -4.5733    2.4646   51.4621 N.3     1  ZINC000967287417   -0.5300
     15 C15        -3.6220    2.3443   50.3492 C.3     1  ZINC000967287417    0.1300
     16 C16        -2.2140    2.4072   50.8829 C.2     1  ZINC000967287417    0.0200
     17 N17        -1.8181    3.0032   51.9704 N.2     1  ZINC000967287417   -0.3500
     18 O18        -0.6268    2.8802   52.1371 O.3     1  ZINC000967287417    0.1000
     19 C19        -0.0627    2.1658   51.1531 C.2     1  ZINC000967287417   -0.0300
     20 C20         1.3949    1.8068   51.0203 C.3     1  ZINC000967287417   -0.0800
     21 C21        -1.0624    1.8252   50.3050 C.2     1  ZINC000967287417   -0.2400
     22 C22        -5.6828    1.5147   51.3111 C.3     1  ZINC000967287417    0.0500
     23 C23        -6.5726    1.5657   52.5551 C.3     1  ZINC000967287417   -0.1100
     24 C24        -7.1141    2.9877   52.7323 C.3     1  ZINC000967287417   -0.1000
     25 H25        -7.7306    3.2525   51.8733 H       1  ZINC000967287417    0.0900
     26 C26        -7.9567    3.0588   54.0076 C.3     1  ZINC000967287417   -0.1500
     27 O27        -2.8023    3.2911   55.9781 O.3     1  ZINC000967287417   -0.1600
     28 H28         1.1880    1.2839   57.3517 H       1  ZINC000967287417    0.0500
     29 H29         2.0673    2.6613   58.0574 H       1  ZINC000967287417    0.0900
     30 H30         0.9666    1.6954   59.0693 H       1  ZINC000967287417    0.0500
     31 H31        -1.1908    1.4579   57.0590 H       1  ZINC000967287417    0.0900
     32 H32        -1.4845    2.0152   58.7237 H       1  ZINC000967287417    0.0700
     33 H33        -2.5770    4.5767   58.9340 H       1  ZINC000967287417    0.1600
     34 H34        -4.3377    5.8125   57.3192 H       1  ZINC000967287417    0.1600
     35 H35        -5.0706    2.7196   54.3249 H       1  ZINC000967287417    0.4100
     36 H36        -5.6579    4.0966   50.7061 H       1  ZINC000967287417    0.0500
     37 H37        -4.2209    4.5252   51.6649 H       1  ZINC000967287417    0.0900
     38 H38        -3.7757    1.3924   49.8410 H       1  ZINC000967287417    0.0600
     39 H39        -3.7805    3.1616   49.6456 H       1  ZINC000967287417    0.0900
     40 H40         1.9494    2.2213   51.8621 H       1  ZINC000967287417    0.0800
     41 H41         1.5026    0.7222   51.0129 H       1  ZINC000967287417    0.0900
     42 H42         1.7867    2.2173   50.0897 H       1  ZINC000967287417    0.0900
     43 H43        -0.9945    1.2484   49.3945 H       1  ZINC000967287417    0.1700
     44 H44        -6.2710    1.7800   50.4327 H       1  ZINC000967287417    0.0400
     45 H45        -5.2845    0.5072   51.1905 H       1  ZINC000967287417    0.0800
     46 H46        -7.4048    0.8718   52.4361 H       1  ZINC000967287417    0.0700
     47 H47        -5.9884    1.2870   53.4321 H       1  ZINC000967287417    0.0700
     48 H48        -7.3389    2.7962   54.8663 H       1  ZINC000967287417    0.0600
     49 H49        -8.3415    4.0709   54.1328 H       1  ZINC000967287417    0.0600
     50 H50        -8.7898    2.3601   53.9320 H       1  ZINC000967287417    0.0600
@<TRIPOS>BOND
     1     1     2    1
     2     1    28    1
     3     1    29    1
     4     1    30    1
     5     2     3    1
     6     3     4    1
     7     3    31    1
     8     3    32    1
     9     4    27    1
    10     4     5    2
    11     5     6    1
    12     5    33    1
    13     6     7    2
    14     6    34    1
    15     7     8    1
    16     7    27    1
    17     8     9    2
    18     8    10   am
    19    10    11    1
    20    10    35    1
    21    11    12    1
    22    11    24    1
    23    11    13    1
    24    13    14    1
    25    13    36    1
    26    13    37    1
    27    14    15    1
    28    14    22    1
    29    15    16    1
    30    15    38    1
    31    15    39    1
    32    16    21    1
    33    16    17    2
    34    17    18    1
    35    18    19    1
    36    19    20    1
    37    19    21    2
    38    20    40    1
    39    20    41    1
    40    20    42    1
    41    21    43    1
    42    22    23    1
    43    22    44    1
    44    22    45    1
    45    23    24    1
    46    23    46    1
    47    23    47    1
    48    24    25    1
    49    24    26    1
    50    26    48    1
    51    26    49    1
    52    26    50    1
@<TRIPOS>SUBSTRUCTURE
     1 ZINC000967287417        1 TEMP              0 ****  ****    0 ROOT


##########                                Name:    ZINC000883773972
##########                DOCK_Rotatable_Bonds:                   4
##########                         Heavy_Atoms:                  23
##########                    Molecular_Weight:             343.447
##########                DOCK_Rotatable_Bonds:                   4
##########                       Formal_Charge:                0.01
##########                     HBond_Acceptors:                   8
##########                        HBond_Donors:                   1
##########                         Heavy_Atoms:                  23
##########                          Grid_Score:          -29.174770
##########                     Grid_vdw_energy:          -28.231222
##########                      Grid_es_energy:           -0.943549
##########           Internal_energy_repulsive:            5.190185

@<TRIPOS>MOLECULE
ZINC000883773972
 48 50 1 0 0
SMALL
USER_CHARGES


@<TRIPOS>ATOM
      1 C1        -15.1556   -2.7364   58.5162 C.3     1  ZINC000883773972   -0.1700
      2 C2        -14.1071   -1.6914   58.7984 C.2     1  ZINC000883773972    0.5300
      3 O3        -14.0525   -1.1665   59.8904 O.2     1  ZINC000883773972   -0.5400
      4 N4        -13.2299   -1.3402   57.8373 N.am    1  ZINC000883773972   -0.6200
      5 C5        -12.1494   -0.3469   57.9525 C.3     1  ZINC000883773972    0.1100
      6 C6        -11.0180   -0.8279   57.0289 C.3     1  ZINC000883773972   -0.1100
      7 H7        -10.2027   -1.2847   57.5898 H       1  ZINC000883773972    0.1000
      8 C8        -10.5307    0.3476   56.1653 C.3     1  ZINC000883773972    0.1300
      9 N9        -10.4856   -0.1463   54.7793 N.am    1  ZINC000883773972   -0.6400
     10 C10        -9.6332    0.2461   53.8117 C.2     1  ZINC000883773972    0.7300
     11 O11        -9.7039   -0.2472   52.7027 O.2     1  ZINC000883773972   -0.5800
     12 N12        -8.7025    1.1850   54.0736 N.am    1  ZINC000883773972   -0.7400
     13 C13        -7.7749    1.6102   53.0224 C.3     1  ZINC000883773972    0.1800
     14 H14        -8.3219    1.7410   52.0886 H       1  ZINC000883773972    0.1100
     15 C15        -7.1298    2.9342   53.4213 C.3     1  ZINC000883773972   -0.1500
     16 C16        -6.3543    3.5292   52.2495 C.3     1  ZINC000883773972   -0.1000
     17 C17        -5.1072    2.6884   51.9668 C.3     1  ZINC000883773972   -0.5600
     18 H18        -4.5011    2.6198   52.8701 H       1  ZINC000883773972    0.1400
     19 C19        -4.2906    3.3430   50.8507 C.3     1  ZINC000883773972   -0.1400
     20 S20        -5.6207    1.0238   51.4515 S.o2    1  ZINC000883773972    2.4200
     21 O21        -6.4108    1.1352   50.2757 O.2     1  ZINC000883773972   -0.9200
     22 O22        -4.4792    0.1775   51.4445 O.2     1  ZINC000883773972   -0.9300
     23 C23        -6.6964    0.5410   52.8338 C.3     1  ZINC000883773972   -0.6300
     24 C24       -11.5533   -1.1524   54.6564 C.3     1  ZINC000883773972    0.1100
     25 C25       -11.6839   -1.8307   56.0548 C.3     1  ZINC000883773972   -0.1100
     26 H26       -11.2184   -2.8162   56.0728 H       1  ZINC000883773972    0.1000
     27 C27       -13.1610   -1.8796   56.4693 C.3     1  ZINC000883773972    0.1100
     28 H28       -15.7678   -2.8862   59.4055 H       1  ZINC000883773972    0.0900
     29 H29       -15.7871   -2.4043   57.6922 H       1  ZINC000883773972    0.0900
     30 H30       -14.6704   -3.6746   58.2470 H       1  ZINC000883773972    0.0900
     31 H31       -12.5051    0.6317   57.6302 H       1  ZINC000883773972    0.0800
     32 H32       -11.7958   -0.2965   58.9824 H       1  ZINC000883773972    0.0900
     33 H33       -11.2273    1.1825   56.2426 H       1  ZINC000883773972    0.0700
     34 H34        -9.5360    0.6590   56.4842 H       1  ZINC000883773972    0.0900
     35 H35        -8.6469    1.5795   54.9581 H       1  ZINC000883773972    0.4000
     36 H36        -7.9066    3.6337   53.7301 H       1  ZINC000883773972    0.0900
     37 H37        -6.4478    2.7649   54.2545 H       1  ZINC000883773972    0.0800
     38 H38        -6.9900    3.5424   51.3643 H       1  ZINC000883773972    0.0900
     39 H39        -6.0555    4.5487   52.4939 H       1  ZINC000883773972    0.0900
     40 H40        -3.9905    4.3443   51.1595 H       1  ZINC000883773972    0.0800
     41 H41        -3.4029    2.7431   50.6503 H       1  ZINC000883773972    0.0700
     42 H42        -4.8969    3.4077   49.9472 H       1  ZINC000883773972    0.0800
     43 H43        -6.1033    0.4536   53.7442 H       1  ZINC000883773972    0.1400
     44 H44        -7.1689   -0.4157   52.6115 H       1  ZINC000883773972    0.1400
     45 H45       -12.4907   -0.6711   54.3780 H       1  ZINC000883773972    0.0800
     46 H46       -11.2796   -1.8990   53.9109 H       1  ZINC000883773972    0.0800
     47 H47       -13.5260   -2.9060   56.4329 H       1  ZINC000883773972    0.0900
     48 H48       -13.7557   -1.2469   55.8104 H       1  ZINC000883773972    0.0700
@<TRIPOS>BOND
     1     1     2    1
     2     1    28    1
     3     1    29    1
     4     1    30    1
     5     2     3    2
     6     2     4   am
     7     4    27    1
     8     4     5    1
     9     5     6    1
    10     5    31    1
    11     5    32    1
    12     6     7    1
    13     6    25    1
    14     6     8    1
    15     8     9    1
    16     8    33    1
    17     8    34    1
    18     9    10   am
    19     9    24    1
    20    10    11    2
    21    10    12   am
    22    12    13    1
    23    12    35    1
    24    13    14    1
    25    13    23    1
    26    13    15    1
    27    15    16    1
    28    15    36    1
    29    15    37    1
    30    16    17    1
    31    16    38    1
    32    16    39    1
    33    17    18    1
    34    17    19    1
    35    17    20    1
    36    19    40    1
    37    19    41    1
    38    19    42    1
    39    20    21    2
    40    20    22    2
    41    20    23    1
    42    23    43    1
    43    23    44    1
    44    24    25    1
    45    24    45    1
    46    24    46    1
    47    25    26    1
    48    25    27    1
    49    27    47    1
    50    27    48    1
@<TRIPOS>SUBSTRUCTURE
     1 ZINC000883773972        1 TEMP              0 ****  ****    0 ROOT


##########                                Name:    ZINC000478980774
##########                DOCK_Rotatable_Bonds:                   4
##########                         Heavy_Atoms:                  26
##########                    Molecular_Weight:             401.818
##########                DOCK_Rotatable_Bonds:                   4
##########                       Formal_Charge:          -0.0100001
##########                     HBond_Acceptors:                   9
##########                        HBond_Donors:                   1
##########                         Heavy_Atoms:                  26
##########                          Grid_Score:          -29.149893
##########                     Grid_vdw_energy:          -28.860809
##########                      Grid_es_energy:           -0.289084
##########           Internal_energy_repulsive:            8.739341

@<TRIPOS>MOLECULE
ZINC000478980774
 40 42 1 0 0
SMALL
USER_CHARGES


@<TRIPOS>ATOM
      1 C1         -6.3332    3.0213   50.6183 C.3     1  ZINC000478980774   -0.1400
      2 C2         -5.8369    1.7343   51.2801 C.3     1  ZINC000478980774   -0.4600
      3 H3         -6.1439    0.8763   50.6820 H       1  ZINC000478980774    0.1500
      4 C4         -4.3334    1.7668   51.3771 C.2     1  ZINC000478980774    0.5400
      5 O5         -3.7019    0.7313   51.3593 O.2     1  ZINC000478980774   -0.5000
      6 N6         -3.6903    2.9464   51.4838 N.am    1  ZINC000478980774   -0.6600
      7 C7         -2.2926    2.9766   51.5740 C.ar    1  ZINC000478980774    0.1600
      8 C8         -1.6804    3.5669   52.6710 C.ar    1  ZINC000478980774   -0.1200
      9 C9         -0.3014    3.5979   52.7611 C.ar    1  ZINC000478980774   -0.0600
     10 C10         0.4734    3.0404   51.7575 C.ar    1  ZINC000478980774    0.0100
     11 O11         1.8277    2.9429   51.6093 O.3     1  ZINC000478980774   -0.2900
     12 C12         2.0327    1.9259   50.6108 C.3     1  ZINC000478980774    0.5700
     13 F13         3.1528    2.2247   49.8276 F       1  ZINC000478980774   -0.1100
     14 F14         2.1749    0.6700   51.2104 F       1  ZINC000478980774   -0.1500
     15 O15         0.8323    1.9782   49.8176 O.3     1  ZINC000478980774   -0.2800
     16 C16        -0.1383    2.4469   50.6552 C.ar    1  ZINC000478980774    0.0500
     17 C17        -1.5195    2.4112   50.5686 C.ar    1  ZINC000478980774   -0.0900
     18 S18        -6.5472    1.5969   52.9437 S.o     1  ZINC000478980774    1.3000
     19 O19        -6.1209    2.6988   53.7332 O.2     1  ZINC000478980774   -0.7800
     20 C20        -8.3306    1.7265   52.6377 C.3     1  ZINC000478980774   -0.4300
     21 C21        -9.0729    1.6286   53.9456 C.ar    1  ZINC000478980774   -0.0600
     22 C22        -9.0532    2.6882   54.8325 C.ar    1  ZINC000478980774   -0.1100
     23 C23        -9.7342    2.5985   56.0325 C.ar    1  ZINC000478980774   -0.1100
     24 C24       -10.4346    1.4489   56.3460 C.ar    1  ZINC000478980774   -0.1100
     25 C25       -10.4550    0.3883   55.4596 C.ar    1  ZINC000478980774   -0.1100
     26 C26        -9.7790    0.4798   54.2563 C.ar    1  ZINC000478980774   -0.0300
     27 Cl27       -9.8042   -0.8517   53.1426 Cl      1  ZINC000478980774   -0.0600
     28 H28        -7.4207    2.9977   50.5482 H       1  ZINC000478980774    0.0800
     29 H29        -6.0262    3.8792   51.2164 H       1  ZINC000478980774    0.0700
     30 H30        -5.9064    3.1038   49.6188 H       1  ZINC000478980774    0.0700
     31 H31        -4.1952    3.7745   51.4983 H       1  ZINC000478980774    0.4200
     32 H32        -2.2822    4.0027   53.4548 H       1  ZINC000478980774    0.1500
     33 H33         0.1726    4.0580   53.6154 H       1  ZINC000478980774    0.1500
     34 H34        -1.9957    1.9473   49.7175 H       1  ZINC000478980774    0.1600
     35 H35        -8.5497    2.6846   52.1665 H       1  ZINC000478980774    0.1100
     36 H36        -8.6460    0.9171   51.9795 H       1  ZINC000478980774    0.1300
     37 H37        -8.5056    3.5864   54.5883 H       1  ZINC000478980774    0.1400
     38 H38        -9.7185    3.4269   56.7253 H       1  ZINC000478980774    0.1300
     39 H39       -10.9657    1.3791   57.2837 H       1  ZINC000478980774    0.1300
     40 H40       -11.0023   -0.5099   55.7047 H       1  ZINC000478980774    0.1300
@<TRIPOS>BOND
     1     1     2    1
     2     1    28    1
     3     1    29    1
     4     1    30    1
     5     2     3    1
     6     2     4    1
     7     2    18    1
     8     4     5    2
     9     4     6   am
    10     6     7    1
    11     6    31    1
    12     7    17   ar
    13     7     8   ar
    14     8     9   ar
    15     8    32    1
    16     9    10   ar
    17     9    33    1
    18    10    16   ar
    19    10    11    1
    20    11    12    1
    21    12    13    1
    22    12    14    1
    23    12    15    1
    24    15    16    1
    25    16    17   ar
    26    17    34    1
    27    18    19    2
    28    18    20    1
    29    20    21    1
    30    20    35    1
    31    20    36    1
    32    21    26   ar
    33    21    22   ar
    34    22    23   ar
    35    22    37    1
    36    23    24   ar
    37    23    38    1
    38    24    25   ar
    39    24    39    1
    40    25    26   ar
    41    25    40    1
    42    26    27    1
@<TRIPOS>SUBSTRUCTURE
     1 ZINC000478980774        1 TEMP              0 ****  ****    0 ROOT


##########                                Name:    ZINC001011676549
##########                DOCK_Rotatable_Bonds:                   6
##########                         Heavy_Atoms:                  24
##########                    Molecular_Weight:             330.387
##########                DOCK_Rotatable_Bonds:                   6
##########                       Formal_Charge:        -1.49012e-07
##########                     HBond_Acceptors:                   7
##########                        HBond_Donors:                   1
##########                         Heavy_Atoms:                  24
##########                          Grid_Score:          -29.149313
##########                     Grid_vdw_energy:          -28.938084
##########                      Grid_es_energy:           -0.211230
##########           Internal_energy_repulsive:           14.491283

@<TRIPOS>MOLECULE
ZINC001011676549
 46 48 1 0 0
SMALL
USER_CHARGES


@<TRIPOS>ATOM
      1 C1         -5.6687   -0.0474   51.7127 C.3     1  ZINC001011676549   -0.1700
      2 C2         -6.1669    1.3728   51.4379 C.3     1  ZINC001011676549    0.1300
      3 H3         -6.3621    1.4974   50.3728 H       1  ZINC001011676549    0.0900
      4 C4         -7.4559    1.6418   52.2427 C.3     1  ZINC001011676549    0.1400
      5 H5         -8.1398    2.2734   51.6757 H       1  ZINC001011676549    0.1100
      6 N6         -8.1055    0.3831   52.6168 N.am    1  ZINC001011676549   -0.7200
      7 C7         -9.4307    0.3553   52.8612 C.2     1  ZINC001011676549    0.5200
      8 O8        -10.0851    1.3725   52.7727 O.2     1  ZINC001011676549   -0.5300
      9 C9        -10.0991   -0.9399   53.2444 C.3     1  ZINC001011676549   -0.0900
     10 C10       -11.2783   -0.6515   54.1374 C.ar    1  ZINC001011676549   -0.1800
     11 C11       -12.5392   -0.4406   53.6018 C.ar    1  ZINC001011676549    0.1600
     12 N12       -13.5510   -0.1900   54.4171 N.ar    1  ZINC001011676549   -0.5200
     13 C13       -13.3706   -0.1398   55.7216 C.ar    1  ZINC001011676549    0.3000
     14 N14       -12.1865   -0.3351   56.2661 N.ar    1  ZINC001011676549   -0.5200
     15 C15       -11.1293   -0.5964   55.5141 C.ar    1  ZINC001011676549    0.1600
     16 C16        -6.9324    2.3883   53.4981 C.3     1  ZINC001011676549   -0.1400
     17 C17        -5.7723    3.2238   52.9019 C.3     1  ZINC001011676549    0.1000
     18 N18        -5.1610    2.3498   51.8796 N.am    1  ZINC001011676549   -0.6100
     19 C19        -3.8927    2.4336   51.4312 C.2     1  ZINC001011676549    0.5800
     20 O20        -3.4950    1.6577   50.5833 O.2     1  ZINC001011676549   -0.5300
     21 C21        -2.9895    3.4635   51.9674 C.2     1  ZINC001011676549   -0.1400
     22 C22        -3.3645    4.7290   51.9181 C.2     1  ZINC001011676549   -0.1500
     23 C23        -2.5045    5.8483   52.4333 C.3     1  ZINC001011676549    0.0900
     24 O24        -1.4688    5.3272   53.2685 O.3     1  ZINC001011676549   -0.3800
     25 C25        -0.7427    4.2527   52.6594 C.3     1  ZINC001011676549    0.0600
     26 C26        -1.6731    3.0389   52.5584 C.3     1  ZINC001011676549   -0.1100
     27 H27        -5.4639   -0.1611   52.7773 H       1  ZINC001011676549    0.0600
     28 H28        -6.4318   -0.7649   51.4110 H       1  ZINC001011676549    0.0700
     29 H29        -4.7556   -0.2283   51.1457 H       1  ZINC001011676549    0.0800
     30 H30        -7.5819   -0.4302   52.6887 H       1  ZINC001011676549    0.4100
     31 H31       -10.4412   -1.4521   52.3450 H       1  ZINC001011676549    0.1100
     32 H32        -9.3879   -1.5728   53.7748 H       1  ZINC001011676549    0.1100
     33 H33       -12.6938   -0.4801   52.5337 H       1  ZINC001011676549    0.1700
     34 H34       -14.2157    0.0672   56.3615 H       1  ZINC001011676549    0.2000
     35 H35       -10.1617   -0.7559   55.9667 H       1  ZINC001011676549    0.1700
     36 H36        -7.7033    3.0342   53.9183 H       1  ZINC001011676549    0.0900
     37 H37        -6.5639    1.6854   54.2452 H       1  ZINC001011676549    0.0800
     38 H38        -6.1577    4.1330   52.4403 H       1  ZINC001011676549    0.0800
     39 H39        -5.0448    3.4692   53.6757 H       1  ZINC001011676549    0.0800
     40 H40        -4.3270    4.9687   51.4906 H       1  ZINC001011676549    0.1200
     41 H41        -2.0580    6.3779   51.5917 H       1  ZINC001011676549    0.0700
     42 H42        -3.1188    6.5408   53.0088 H       1  ZINC001011676549    0.1100
     43 H43        -0.4140    4.5508   51.6638 H       1  ZINC001011676549    0.0600
     44 H44         0.1217    4.0003   53.2736 H       1  ZINC001011676549    0.1000
     45 H45        -1.8326    2.6200   53.5520 H       1  ZINC001011676549    0.0900
     46 H46        -1.2181    2.2852   51.9158 H       1  ZINC001011676549    0.0900
@<TRIPOS>BOND
     1     1     2    1
     2     1    27    1
     3     1    28    1
     4     1    29    1
     5     2     3    1
     6     2    18    1
     7     2     4    1
     8     4     5    1
     9     4     6    1
    10     4    16    1
    11     6     7   am
    12     6    30    1
    13     7     8    2
    14     7     9    1
    15     9    10    1
    16     9    31    1
    17     9    32    1
    18    10    15   ar
    19    10    11   ar
    20    11    12   ar
    21    11    33    1
    22    12    13   ar
    23    13    14   ar
    24    13    34    1
    25    14    15   ar
    26    15    35    1
    27    16    17    1
    28    16    36    1
    29    16    37    1
    30    17    18    1
    31    17    38    1
    32    17    39    1
    33    18    19   am
    34    19    20    2
    35    19    21    1
    36    21    26    1
    37    21    22    2
    38    22    23    1
    39    22    40    1
    40    23    24    1
    41    23    41    1
    42    23    42    1
    43    24    25    1
    44    25    26    1
    45    25    43    1
    46    25    44    1
    47    26    45    1
    48    26    46    1
@<TRIPOS>SUBSTRUCTURE
     1 ZINC001011676549        1 TEMP              0 ****  ****    0 ROOT


##########                                Name:    ZINC001310073555
##########                DOCK_Rotatable_Bonds:                  12
##########                         Heavy_Atoms:                  27
##########                    Molecular_Weight:             380.484
##########                DOCK_Rotatable_Bonds:                  12
##########                       Formal_Charge:          0.00999888
##########                     HBond_Acceptors:                   7
##########                        HBond_Donors:                   2
##########                         Heavy_Atoms:                  27
##########                          Grid_Score:          -29.148771
##########                     Grid_vdw_energy:          -28.583902
##########                      Grid_es_energy:           -0.564868
##########           Internal_energy_repulsive:           53.752071

@<TRIPOS>MOLECULE
ZINC001310073555
 59 59 1 0 0
SMALL
USER_CHARGES


@<TRIPOS>ATOM
      1 C1        -11.7147    6.2576   53.6784 C.3     1  ZINC001310073555   -0.1600
      2 C2        -12.2190    5.7688   52.3191 C.3     1  ZINC001310073555   -0.1100
      3 C3        -11.3740    4.5790   51.8594 C.3     1  ZINC001310073555   -0.0600
      4 C4        -11.6107    4.3312   50.3683 C.3     1  ZINC001310073555   -0.1100
      5 C5        -13.1135    4.3454   50.0813 C.3     1  ZINC001310073555   -0.1600
      6 C6         -9.8934    4.8828   52.0971 C.3     1  ZINC001310073555    0.1600
      7 N7         -9.0805    4.1308   51.1382 N.am    1  ZINC001310073555   -0.7400
      8 C8         -7.7852    3.8741   51.4081 C.2     1  ZINC001310073555    0.7100
      9 O9         -7.2917    4.2655   52.4482 O.2     1  ZINC001310073555   -0.5700
     10 N10        -7.0369    3.1836   50.5251 N.am    1  ZINC001310073555   -0.6700
     11 C11        -5.6878    2.9162   50.8062 C.ar    1  ZINC001310073555    0.1000
     12 C12        -4.7791    3.9589   50.9015 C.ar    1  ZINC001310073555   -0.0400
     13 C13        -3.4506    3.6957   51.1782 C.ar    1  ZINC001310073555   -0.2200
     14 C14        -3.0238    2.3890   51.3615 C.ar    1  ZINC001310073555    0.1500
     15 O15        -1.7163    2.1335   51.6336 O.3     1  ZINC001310073555   -0.3200
     16 C16        -0.8231    2.0656   50.5202 C.3     1  ZINC001310073555    0.0300
     17 C17        -3.9295    1.3426   51.2680 C.ar    1  ZINC001310073555   -0.2300
     18 C18        -5.2618    1.6034   50.9953 C.ar    1  ZINC001310073555    0.1400
     19 O19        -6.1513    0.5789   50.9031 O.3     1  ZINC001310073555   -0.3100
     20 C20        -6.3728   -0.1959   52.0832 C.3     1  ZINC001310073555    0.0300
     21 C21       -11.7669    3.3520   52.6411 C.2     1  ZINC001310073555    0.4800
     22 O22       -12.8284    3.3170   53.2172 O.2     1  ZINC001310073555   -0.5000
     23 O23       -10.9378    2.2979   52.6974 O.3     1  ZINC001310073555   -0.3400
     24 C24       -11.4399    1.0979   53.3424 C.3     1  ZINC001310073555    0.1200
     25 C25       -10.3859   -0.0075   53.2544 C.3     1  ZINC001310073555   -0.1800
     26 C26       -11.7432    1.3976   54.8118 C.3     1  ZINC001310073555   -0.1400
     27 C27       -12.7198    0.6393   52.6407 C.3     1  ZINC001310073555   -0.1800
     28 H28       -12.3167    7.1053   54.0059 H       1  ZINC001310073555    0.0600
     29 H29       -11.7957    5.4513   54.4074 H       1  ZINC001310073555    0.0500
     30 H30       -10.6725    6.5646   53.5904 H       1  ZINC001310073555    0.0600
     31 H31       -13.2612    5.4619   52.4071 H       1  ZINC001310073555    0.0800
     32 H32       -12.1379    6.5753   51.5902 H       1  ZINC001310073555    0.0800
     33 H33       -11.1225    5.1139   49.7878 H       1  ZINC001310073555    0.0800
     34 H34       -11.1970    3.3616   50.0910 H       1  ZINC001310073555    0.0800
     35 H35       -13.6017    3.5626   50.6618 H       1  ZINC001310073555    0.0600
     36 H36       -13.5272    5.3150   50.3586 H       1  ZINC001310073555    0.0500
     37 H37       -13.2822    4.1688   49.0191 H       1  ZINC001310073555    0.0600
     38 H38        -9.7159    5.9502   51.9656 H       1  ZINC001310073555    0.0800
     39 H39        -9.6211    4.5915   53.1115 H       1  ZINC001310073555    0.0800
     40 H40        -9.4744    3.8175   50.3090 H       1  ZINC001310073555    0.4000
     41 H41        -7.4304    2.8714   49.6953 H       1  ZINC001310073555    0.4100
     42 H42        -5.1093    4.9773   50.7590 H       1  ZINC001310073555    0.1500
     43 H43        -2.7437    4.5090   51.2514 H       1  ZINC001310073555    0.1300
     44 H44        -1.1427    1.2710   49.8460 H       1  ZINC001310073555    0.0600
     45 H45        -0.8312    3.0176   49.9895 H       1  ZINC001310073555    0.0600
     46 H46         0.1857    1.8565   50.8760 H       1  ZINC001310073555    0.1000
     47 H47        -3.5963    0.3253   51.4109 H       1  ZINC001310073555    0.1400
     48 H48        -7.1023   -0.9779   51.8728 H       1  ZINC001310073555    0.1000
     49 H49        -5.4344   -0.6505   52.4009 H       1  ZINC001310073555    0.0600
     50 H50        -6.7506    0.4495   52.8762 H       1  ZINC001310073555    0.0600
     51 H51        -9.4740    0.3192   53.7542 H       1  ZINC001310073555    0.0600
     52 H52       -10.7628   -0.9084   53.7386 H       1  ZINC001310073555    0.0700
     53 H53       -10.1698   -0.2210   52.2075 H       1  ZINC001310073555    0.0800
     54 H54       -12.4941    2.1852   54.8745 H       1  ZINC001310073555    0.0700
     55 H55       -12.1202    0.4967   55.2961 H       1  ZINC001310073555    0.0800
     56 H56       -10.8314    1.7243   55.3117 H       1  ZINC001310073555    0.0700
     57 H57       -12.5038    0.4258   51.5939 H       1  ZINC001310073555    0.0800
     58 H58       -13.0968   -0.2615   53.1250 H       1  ZINC001310073555    0.0700
     59 H59       -13.4708    1.4269   52.7035 H       1  ZINC001310073555    0.0600
@<TRIPOS>BOND
     1     1     2    1
     2     1    28    1
     3     1    29    1
     4     1    30    1
     5     2     3    1
     6     2    31    1
     7     2    32    1
     8     3     4    1
     9     3     6    1
    10     3    21    1
    11     4     5    1
    12     4    33    1
    13     4    34    1
    14     5    35    1
    15     5    36    1
    16     5    37    1
    17     6     7    1
    18     6    38    1
    19     6    39    1
    20     7     8   am
    21     7    40    1
    22     8     9    2
    23     8    10   am
    24    10    11    1
    25    10    41    1
    26    11    18   ar
    27    11    12   ar
    28    12    13   ar
    29    12    42    1
    30    13    14   ar
    31    13    43    1
    32    14    15    1
    33    14    17   ar
    34    15    16    1
    35    16    44    1
    36    16    45    1
    37    16    46    1
    38    17    18   ar
    39    17    47    1
    40    18    19    1
    41    19    20    1
    42    20    48    1
    43    20    49    1
    44    20    50    1
    45    21    22    2
    46    21    23    1
    47    23    24    1
    48    24    25    1
    49    24    26    1
    50    24    27    1
    51    25    51    1
    52    25    52    1
    53    25    53    1
    54    26    54    1
    55    26    55    1
    56    26    56    1
    57    27    57    1
    58    27    58    1
    59    27    59    1
@<TRIPOS>SUBSTRUCTURE
     1 ZINC001310073555        1 TEMP              0 ****  ****    0 ROOT


##########                                Name:    ZINC000129637895
##########                DOCK_Rotatable_Bonds:                   7
##########                         Heavy_Atoms:                  26
##########                    Molecular_Weight:             374.464
##########                DOCK_Rotatable_Bonds:                   7
##########                       Formal_Charge:        -5.51343e-07
##########                     HBond_Acceptors:                   8
##########                        HBond_Donors:                   1
##########                         Heavy_Atoms:                  26
##########                          Grid_Score:          -29.147995
##########                     Grid_vdw_energy:          -29.109064
##########                      Grid_es_energy:           -0.038931
##########           Internal_energy_repulsive:           21.385077

@<TRIPOS>MOLECULE
ZINC000129637895
 48 50 1 0 0
SMALL
USER_CHARGES


@<TRIPOS>ATOM
      1 C1        -14.5958    0.3145   52.6355 C.3     1  ZINC000129637895   -0.1500
      2 C2        -13.1487    0.4995   52.1743 C.3     1  ZINC000129637895   -0.0500
      3 C3        -12.2127   -0.0000   53.2444 C.2     1  ZINC000129637895    0.0300
      4 C4        -10.9472    0.4382   53.3697 C.2     1  ZINC000129637895   -0.0200
      5 N5        -10.3233    1.3877   52.5616 N.am    1  ZINC000129637895   -0.5900
      6 C6         -9.2687    2.0836   53.0308 C.2     1  ZINC000129637895    0.5000
      7 O7         -8.8611    1.8826   54.1567 O.2     1  ZINC000129637895   -0.4800
      8 C8         -8.6020    3.1014   52.1663 C.2     1  ZINC000129637895    0.5200
      9 O9         -9.0949    4.2027   52.0349 O.2     1  ZINC000129637895   -0.5100
     10 N10        -7.4524    2.7975   51.5316 N.am    1  ZINC000129637895   -0.5800
     11 C11        -6.7759    3.7876   50.6800 C.3     1  ZINC000129637895    0.0800
     12 C12        -5.3071    3.8751   51.1079 C.3     1  ZINC000129637895    0.0400
     13 N13        -4.7141    2.5311   51.0895 N.3     1  ZINC000129637895   -0.4900
     14 C14        -3.3368    2.5886   51.3148 C.ar    1  ZINC000129637895    0.1500
     15 C15        -2.8490    3.0748   52.5214 C.ar    1  ZINC000129637895   -0.2100
     16 C16        -1.4867    3.1311   52.7441 C.ar    1  ZINC000129637895   -0.0500
     17 C17        -0.6062    2.7049   51.7682 C.ar    1  ZINC000129637895   -0.2300
     18 C18        -1.0879    2.2182   50.5607 C.ar    1  ZINC000129637895    0.1500
     19 O19        -0.2204    1.7990   49.6022 O.3     1  ZINC000129637895   -0.3200
     20 C20         0.9918    2.5409   49.4549 C.3     1  ZINC000129637895    0.0300
     21 C21        -2.4536    2.1547   50.3354 C.ar    1  ZINC000129637895   -0.1700
     22 C22        -5.3699    1.6459   52.0612 C.3     1  ZINC000129637895    0.0400
     23 C23        -6.8381    1.4691   51.6772 C.3     1  ZINC000129637895    0.1100
     24 S24       -10.2183   -0.4002   54.7374 S.3     1  ZINC000129637895    0.2400
     25 C25       -11.6762   -1.2519   55.0049 C.2     1  ZINC000129637895   -0.0300
     26 N26       -12.5661   -0.8994   54.1406 N.2     1  ZINC000129637895   -0.4500
     27 H27       -14.7860   -0.7429   52.8199 H       1  ZINC000129637895    0.0600
     28 H28       -14.7595    0.8787   53.5536 H       1  ZINC000129637895    0.0500
     29 H29       -15.2728    0.6758   51.8614 H       1  ZINC000129637895    0.0700
     30 H30       -12.9850   -0.0646   51.2561 H       1  ZINC000129637895    0.0900
     31 H31       -12.9585    1.5568   51.9898 H       1  ZINC000129637895    0.0700
     32 H32       -10.6481    1.5475   51.6618 H       1  ZINC000129637895    0.4300
     33 H33        -6.8355    3.4754   49.6374 H       1  ZINC000129637895    0.0900
     34 H34        -7.2512    4.7609   50.8015 H       1  ZINC000129637895    0.1400
     35 H35        -4.7650    4.5213   50.4176 H       1  ZINC000129637895    0.1000
     36 H36        -5.2456    4.2859   52.1156 H       1  ZINC000129637895    0.0500
     37 H37        -3.5351    3.4092   53.2854 H       1  ZINC000129637895    0.1300
     38 H38        -1.1092    3.5093   53.6826 H       1  ZINC000129637895    0.1300
     39 H39         0.4582    2.7509   51.9450 H       1  ZINC000129637895    0.1300
     40 H40         0.7567    3.5754   49.2049 H       1  ZINC000129637895    0.0600
     41 H41         1.5517    2.5113   50.3897 H       1  ZINC000129637895    0.0600
     42 H42         1.5920    2.1019   48.6579 H       1  ZINC000129637895    0.1000
     43 H43        -2.8301    1.7760   49.3967 H       1  ZINC000129637895    0.1300
     44 H44        -4.8734    0.6756   52.0622 H       1  ZINC000129637895    0.1000
     45 H45        -5.3077    2.0878   53.0557 H       1  ZINC000129637895    0.0500
     46 H46        -7.3551    0.9081   52.4557 H       1  ZINC000129637895    0.1100
     47 H47        -6.9070    0.9347   50.7297 H       1  ZINC000129637895    0.0900
     48 H48       -11.8313   -1.9785   55.7888 H       1  ZINC000129637895    0.2000
@<TRIPOS>BOND
     1     1     2    1
     2     1    27    1
     3     1    28    1
     4     1    29    1
     5     2     3    1
     6     2    30    1
     7     2    31    1
     8     3    26    1
     9     3     4    2
    10     4     5    1
    11     4    24    1
    12     5     6   am
    13     5    32    1
    14     6     7    2
    15     6     8    1
    16     8     9    2
    17     8    10   am
    18    10    23    1
    19    10    11    1
    20    11    12    1
    21    11    33    1
    22    11    34    1
    23    12    13    1
    24    12    35    1
    25    12    36    1
    26    13    14    1
    27    13    22    1
    28    14    21   ar
    29    14    15   ar
    30    15    16   ar
    31    15    37    1
    32    16    17   ar
    33    16    38    1
    34    17    18   ar
    35    17    39    1
    36    18    19    1
    37    18    21   ar
    38    19    20    1
    39    20    40    1
    40    20    41    1
    41    20    42    1
    42    21    43    1
    43    22    23    1
    44    22    44    1
    45    22    45    1
    46    23    46    1
    47    23    47    1
    48    24    25    1
    49    25    26    2
    50    25    48    1
@<TRIPOS>SUBSTRUCTURE
     1 ZINC000129637895        1 TEMP              0 ****  ****    0 ROOT


##########                                Name:    ZINC000945148121
##########                DOCK_Rotatable_Bonds:                   6
##########                         Heavy_Atoms:                  24
##########                    Molecular_Weight:             332.446
##########                DOCK_Rotatable_Bonds:                   6
##########                       Formal_Charge:           0.0100009
##########                     HBond_Acceptors:                   6
##########                        HBond_Donors:                   2
##########                         Heavy_Atoms:                  24
##########                          Grid_Score:          -29.113903
##########                     Grid_vdw_energy:          -28.436995
##########                      Grid_es_energy:           -0.676908
##########           Internal_energy_repulsive:           19.943184

@<TRIPOS>MOLECULE
ZINC000945148121
 52 54 1 0 0
SMALL
USER_CHARGES


@<TRIPOS>ATOM
      1 O1        -14.0823   -0.6005   54.0879 O.2     1  ZINC000945148121   -0.5100
      2 C2        -14.2545   -0.0878   53.0024 C.2     1  ZINC000945148121    0.5200
      3 C3        -15.6141   -0.1346   52.3542 C.3     1  ZINC000945148121   -0.0500
      4 C4        -15.4777   -0.6242   50.9354 C.2     1  ZINC000945148121    0.0100
      5 C5        -16.0831   -1.7063   50.4100 C.2     1  ZINC000945148121   -0.0500
      6 N6        -15.6873   -1.7855   49.1021 N.pl3   1  ZINC000945148121   -0.5700
      7 C7        -14.8534   -0.7481   48.8735 C.2     1  ZINC000945148121    0.1800
      8 N8        -14.7367   -0.0551   49.9731 N.2     1  ZINC000945148121   -0.4700
      9 N9        -13.2313    0.5286   52.3782 N.am    1  ZINC000945148121   -0.7300
     10 C10       -11.9095    0.5740   53.0083 C.3     1  ZINC000945148121    0.1500
     11 C11       -11.1630   -0.7309   52.7219 C.3     1  ZINC000945148121   -0.1400
     12 C12        -9.7953   -0.6940   53.4110 C.3     1  ZINC000945148121    0.1100
     13 N13        -9.0817    0.5163   52.9812 N.am    1  ZINC000945148121   -0.6100
     14 C14        -7.8408    0.4338   52.4617 C.2     1  ZINC000945148121    0.5200
     15 O15        -7.3034   -0.6470   52.3439 O.2     1  ZINC000945148121   -0.5400
     16 C16        -7.1213    1.6845   52.0271 C.3     1  ZINC000945148121   -0.1000
     17 C17        -6.6091    2.4191   53.2362 C.3     1  ZINC000945148121   -0.1200
     18 C18        -6.6328    3.9483   53.0509 C.3     1  ZINC000945148121   -0.1200
     19 C19        -6.1633    4.3879   51.6509 C.3     1  ZINC000945148121   -0.1200
     20 C20        -4.9666    3.6100   51.1745 C.3     1  ZINC000945148121   -0.1200
     21 C21        -5.4612    2.4235   50.3220 C.3     1  ZINC000945148121   -0.1200
     22 C22        -5.9192    1.3079   51.1369 C.3     1  ZINC000945148121   -0.1000
     23 C23        -9.7468    1.8182   53.1280 C.3     1  ZINC000945148121    0.1100
     24 C24       -11.1149    1.7531   52.4420 C.3     1  ZINC000945148121   -0.1400
     25 H25       -16.2596   -0.8131   52.9121 H       1  ZINC000945148121    0.1000
     26 H26       -16.0509    0.8641   52.3535 H       1  ZINC000945148121    0.1000
     27 H27       -16.7519   -2.3820   50.9223 H       1  ZINC000945148121    0.1800
     28 H28       -15.9559   -2.4606   48.4594 H       1  ZINC000945148121    0.4200
     29 H29       -14.3670   -0.5265   47.9351 H       1  ZINC000945148121    0.2100
     30 H30       -13.3701    0.9421   51.5118 H       1  ZINC000945148121    0.4000
     31 H31       -12.0246    0.6974   54.0852 H       1  ZINC000945148121    0.0900
     32 H32       -11.7408   -1.5721   53.1049 H       1  ZINC000945148121    0.0800
     33 H33       -11.0255   -0.8429   51.6465 H       1  ZINC000945148121    0.0700
     34 H34        -9.9314   -0.6732   54.4923 H       1  ZINC000945148121    0.0700
     35 H35        -9.2205   -1.5763   53.1299 H       1  ZINC000945148121    0.1000
     36 H36        -7.8043    2.3245   51.4684 H       1  ZINC000945148121    0.1000
     37 H37        -7.2272    2.1583   54.0954 H       1  ZINC000945148121    0.0700
     38 H38        -5.5844    2.1036   53.4328 H       1  ZINC000945148121    0.0700
     39 H39        -7.6504    4.3059   53.2087 H       1  ZINC000945148121    0.0600
     40 H40        -5.9829    4.4032   53.7984 H       1  ZINC000945148121    0.0700
     41 H41        -6.9807    4.2456   50.9440 H       1  ZINC000945148121    0.0600
     42 H42        -5.9063    5.4467   51.6813 H       1  ZINC000945148121    0.0600
     43 H43        -4.3282    4.2542   50.5698 H       1  ZINC000945148121    0.0600
     44 H44        -4.4073    3.2367   52.0323 H       1  ZINC000945148121    0.0700
     45 H45        -6.2836    2.7607   49.6911 H       1  ZINC000945148121    0.0600
     46 H46        -4.6458    2.0831   49.6839 H       1  ZINC000945148121    0.0600
     47 H47        -5.0991    0.9756   51.7734 H       1  ZINC000945148121    0.0700
     48 H48        -6.2093    0.4872   50.4808 H       1  ZINC000945148121    0.0700
     49 H49        -9.8788    2.0438   54.1862 H       1  ZINC000945148121    0.0700
     50 H50        -9.1399    2.5933   52.6600 H       1  ZINC000945148121    0.1000
     51 H51       -10.9780    1.6177   51.3692 H       1  ZINC000945148121    0.0700
     52 H52       -11.6585    2.6799   52.6258 H       1  ZINC000945148121    0.0800
@<TRIPOS>BOND
     1     1     2    2
     2     2     3    1
     3     2     9   am
     4     3     4    1
     5     3    25    1
     6     3    26    1
     7     4     8    1
     8     4     5    2
     9     5     6    1
    10     5    27    1
    11     6     7    1
    12     6    28    1
    13     7     8    2
    14     7    29    1
    15     9    10    1
    16     9    30    1
    17    10    24    1
    18    10    11    1
    19    10    31    1
    20    11    12    1
    21    11    32    1
    22    11    33    1
    23    12    13    1
    24    12    34    1
    25    12    35    1
    26    13    14   am
    27    13    23    1
    28    14    15    2
    29    14    16    1
    30    16    22    1
    31    16    17    1
    32    16    36    1
    33    17    18    1
    34    17    37    1
    35    17    38    1
    36    18    19    1
    37    18    39    1
    38    18    40    1
    39    19    20    1
    40    19    41    1
    41    19    42    1
    42    20    21    1
    43    20    43    1
    44    20    44    1
    45    21    22    1
    46    21    45    1
    47    21    46    1
    48    22    47    1
    49    22    48    1
    50    23    24    1
    51    23    49    1
    52    23    50    1
    53    24    51    1
    54    24    52    1
@<TRIPOS>SUBSTRUCTURE
     1 ZINC000945148121        1 TEMP              0 ****  ****    0 ROOT


##########                                Name:    ZINC001362451754
##########                DOCK_Rotatable_Bonds:                   6
##########                         Heavy_Atoms:                  22
##########                    Molecular_Weight:             339.846
##########                DOCK_Rotatable_Bonds:                   6
##########                       Formal_Charge:         -0.00999987
##########                     HBond_Acceptors:                   7
##########                        HBond_Donors:                   1
##########                         Heavy_Atoms:                  22
##########                          Grid_Score:          -29.104889
##########                     Grid_vdw_energy:          -28.530939
##########                      Grid_es_energy:           -0.573950
##########           Internal_energy_repulsive:           16.601177

@<TRIPOS>MOLECULE
ZINC001362451754
 40 42 1 0 0
SMALL
USER_CHARGES


@<TRIPOS>ATOM
      1 C1         -5.1924    3.9788   52.1493 C.3     1  ZINC001362451754   -0.1700
      2 C2         -5.9616    3.0028   51.2567 C.3     1  ZINC001362451754    0.1400
      3 H3         -6.4897    3.5493   50.4754 H       1  ZINC001362451754    0.0800
      4 C4         -4.9846    1.9914   50.6210 C.3     1  ZINC001362451754   -0.1000
      5 H5         -5.2981    1.7365   49.6086 H       1  ZINC001362451754    0.1000
      6 C6         -3.5571    2.5420   50.6247 C.3     1  ZINC001362451754    0.0900
      7 O7         -2.6907    1.6240   49.9549 O.3     1  ZINC001362451754   -0.5700
      8 C8         -5.1006    0.7602   51.5579 C.3     1  ZINC001362451754   -0.1200
      9 C9         -6.5977    0.8014   51.9452 C.3     1  ZINC001362451754    0.0900
     10 N10        -6.9200    2.2349   52.0650 N.am    1  ZINC001362451754   -0.6100
     11 C11        -7.9235    2.7558   52.7987 C.2     1  ZINC001362451754    0.6100
     12 O12        -8.0972    3.9601   52.8239 O.2     1  ZINC001362451754   -0.5200
     13 C13        -8.8054    1.8718   53.5664 C.2     1  ZINC001362451754   -0.2500
     14 C14        -9.0046    1.9290   54.9170 C.2     1  ZINC001362451754   -0.0500
     15 C15        -9.8807    0.9753   55.3783 C.2     1  ZINC001362451754   -0.1100
     16 C16       -10.3906    0.1709   54.4383 C.2     1  ZINC001362451754   -0.2500
     17 C17       -11.3711   -0.9416   54.7065 C.3     1  ZINC001362451754    0.2100
     18 N18       -11.0952   -1.5298   56.0196 N.pl3   1  ZINC001362451754   -0.3700
     19 C19       -11.6300   -1.1350   57.1952 C.2     1  ZINC001362451754    0.0700
     20 C20       -11.1242   -1.9313   58.1661 C.2     1  ZINC001362451754   -0.1800
     21 Cl21      -11.4966   -1.8400   59.8593 Cl      1  ZINC001362451754   -0.0400
     22 C22       -10.2434   -2.8370   57.5645 C.2     1  ZINC001362451754    0.0700
     23 N23       -10.2256   -2.5971   56.2784 N.2     1  ZINC001362451754   -0.2700
     24 S24        -9.7762    0.5675   52.8969 S.3     1  ZINC001362451754    0.2300
     25 H25        -4.6729    3.4241   52.9308 H       1  ZINC001362451754    0.0600
     26 H26        -4.4662    4.5259   51.5481 H       1  ZINC001362451754    0.0700
     27 H27        -5.8900    4.6814   52.6050 H       1  ZINC001362451754    0.0700
     28 H28        -3.5367    3.5025   50.1098 H       1  ZINC001362451754    0.0500
     29 H29        -3.2213    2.6740   51.6533 H       1  ZINC001362451754    0.0500
     30 H30        -1.9061    2.0352   49.5672 H       1  ZINC001362451754    0.3800
     31 H31        -4.8580   -0.1598   51.0260 H       1  ZINC001362451754    0.0900
     32 H32        -4.4687    0.8782   52.4383 H       1  ZINC001362451754    0.0800
     33 H33        -6.7577    0.2957   52.8974 H       1  ZINC001362451754    0.0800
     34 H34        -7.2020    0.3407   51.1638 H       1  ZINC001362451754    0.0800
     35 H35        -8.5187    2.6490   55.5589 H       1  ZINC001362451754    0.1600
     36 H36       -10.1413    0.8844   56.4225 H       1  ZINC001362451754    0.1500
     37 H37       -12.3855   -0.5431   54.6928 H       1  ZINC001362451754    0.1100
     38 H38       -11.2711   -1.7074   53.9373 H       1  ZINC001362451754    0.1100
     39 H39       -12.3363   -0.3301   57.3352 H       1  ZINC001362451754    0.1800
     40 H40        -9.6760   -3.6019   58.0740 H       1  ZINC001362451754    0.1900
@<TRIPOS>BOND
     1     1     2    1
     2     1    25    1
     3     1    26    1
     4     1    27    1
     5     2     3    1
     6     2    10    1
     7     2     4    1
     8     4     5    1
     9     4     6    1
    10     4     8    1
    11     6     7    1
    12     6    28    1
    13     6    29    1
    14     7    30    1
    15     8     9    1
    16     8    31    1
    17     8    32    1
    18     9    10    1
    19     9    33    1
    20     9    34    1
    21    10    11   am
    22    11    12    2
    23    11    13    1
    24    13    24    1
    25    13    14    2
    26    14    15    1
    27    14    35    1
    28    15    16    2
    29    15    36    1
    30    16    17    1
    31    16    24    1
    32    17    18    1
    33    17    37    1
    34    17    38    1
    35    18    23    1
    36    18    19    1
    37    19    20    2
    38    19    39    1
    39    20    21    1
    40    20    22    1
    41    22    23    2
    42    22    40    1
@<TRIPOS>SUBSTRUCTURE
     1 ZINC001362451754        1 TEMP              0 ****  ****    0 ROOT


##########                                Name:    ZINC000179743483
##########                DOCK_Rotatable_Bonds:                   5
##########                         Heavy_Atoms:                  23
##########                    Molecular_Weight:             393.347
##########                DOCK_Rotatable_Bonds:                   5
##########                       Formal_Charge:          -0.0199999
##########                     HBond_Acceptors:                   4
##########                        HBond_Donors:                   0
##########                         Heavy_Atoms:                  23
##########                          Grid_Score:          -29.102882
##########                     Grid_vdw_energy:          -29.532595
##########                      Grid_es_energy:            0.429713
##########           Internal_energy_repulsive:           22.485971

@<TRIPOS>MOLECULE
ZINC000179743483
 44 46 1 0 0
SMALL
USER_CHARGES


@<TRIPOS>ATOM
      1 C1         -6.6753    2.1350   50.8343 C.3     1  ZINC000179743483   -0.1400
      2 C2         -5.8064    1.5714   51.9606 C.3     1  ZINC000179743483   -0.1000
      3 H3         -5.8095    2.2635   52.8028 H       1  ZINC000179743483    0.1000
      4 C4         -6.3663    0.2199   52.4091 C.3     1  ZINC000179743483   -0.0700
      5 C5         -7.7361    0.4166   53.0056 C.ar    1  ZINC000179743483   -0.0600
      6 C6         -7.9493    1.4224   53.9300 C.ar    1  ZINC000179743483   -0.1100
      7 C7         -9.2057    1.6034   54.4771 C.ar    1  ZINC000179743483   -0.0900
      8 C8        -10.2497    0.7782   54.0997 C.ar    1  ZINC000179743483   -0.0900
      9 Br9       -11.9688    1.0258   54.8473 Br      1  ZINC000179743483   -0.0500
     10 C10       -10.0358   -0.2279   53.1747 C.ar    1  ZINC000179743483   -0.0900
     11 C11        -8.7804   -0.4049   52.6243 C.ar    1  ZINC000179743483   -0.1100
     12 C12        -4.3952    1.3908   51.4640 C.2     1  ZINC000179743483    0.5200
     13 O13        -3.9824    0.2812   51.2007 O.2     1  ZINC000179743483   -0.5300
     14 N14        -3.5917    2.4622   51.3124 N.am    1  ZINC000179743483   -0.6100
     15 C15        -4.0775    3.8126   51.6272 C.3     1  ZINC000179743483    0.1000
     16 C16        -3.1045    4.4697   52.6113 C.3     1  ZINC000179743483   -0.1400
     17 C17        -1.6905    4.4306   52.0273 C.3     1  ZINC000179743483   -0.1100
     18 C18        -1.2614    2.9760   51.8223 C.3     1  ZINC000179743483   -0.0200
     19 H19        -1.2968    2.4485   52.7756 H       1  ZINC000179743483    0.0900
     20 C20         0.1435    2.9379   51.2783 C.2     1  ZINC000179743483    0.0500
     21 N21         1.2032    3.2435   51.9479 N.2     1  ZINC000179743483   -0.4700
     22 C22         2.3578    3.1550   51.3187 C.2     1  ZINC000179743483    0.0400
     23 C23         2.2668    2.7523   50.0477 C.2     1  ZINC000179743483   -0.2600
     24 S24         0.5644    2.4764   49.6867 S.3     1  ZINC000179743483    0.1300
     25 C25        -2.2115    2.3013   50.8351 C.3     1  ZINC000179743483    0.1200
     26 H26        -6.6108    1.4817   49.9642 H       1  ZINC000179743483    0.0700
     27 H27        -7.7110    2.1933   51.1689 H       1  ZINC000179743483    0.0700
     28 H28        -6.3230    3.1313   50.5674 H       1  ZINC000179743483    0.0600
     29 H29        -6.4365   -0.4474   51.5501 H       1  ZINC000179743483    0.0900
     30 H30        -5.7041   -0.2177   53.1560 H       1  ZINC000179743483    0.0800
     31 H31        -7.1341    2.0663   54.2249 H       1  ZINC000179743483    0.1300
     32 H32        -9.3720    2.3888   55.1995 H       1  ZINC000179743483    0.1300
     33 H33       -10.8506   -0.8724   52.8798 H       1  ZINC000179743483    0.1300
     34 H34        -8.6134   -1.1904   51.9020 H       1  ZINC000179743483    0.1300
     35 H35        -4.1285    4.4047   50.7135 H       1  ZINC000179743483    0.0700
     36 H36        -5.0672    3.7487   52.0795 H       1  ZINC000179743483    0.0900
     37 H37        -3.4005    5.5053   52.7788 H       1  ZINC000179743483    0.0800
     38 H38        -3.1226    3.9281   53.5571 H       1  ZINC000179743483    0.0700
     39 H39        -1.6787    4.9510   51.0696 H       1  ZINC000179743483    0.0800
     40 H40        -1.0001    4.9195   52.7146 H       1  ZINC000179743483    0.0700
     41 H41         3.3002    3.3891   51.7914 H       1  ZINC000179743483    0.1800
     42 H42         3.0915    2.6164   49.3637 H       1  ZINC000179743483    0.1800
     43 H43        -1.9700    1.2409   50.7621 H       1  ZINC000179743483    0.0900
     44 H44        -2.1131    2.7689   49.8555 H       1  ZINC000179743483    0.0800
@<TRIPOS>BOND
     1     1     2    1
     2     1    26    1
     3     1    27    1
     4     1    28    1
     5     2     3    1
     6     2     4    1
     7     2    12    1
     8     4     5    1
     9     4    29    1
    10     4    30    1
    11     5    11   ar
    12     5     6   ar
    13     6     7   ar
    14     6    31    1
    15     7     8   ar
    16     7    32    1
    17     8     9    1
    18     8    10   ar
    19    10    11   ar
    20    10    33    1
    21    11    34    1
    22    12    13    2
    23    12    14   am
    24    14    25    1
    25    14    15    1
    26    15    16    1
    27    15    35    1
    28    15    36    1
    29    16    17    1
    30    16    37    1
    31    16    38    1
    32    17    18    1
    33    17    39    1
    34    17    40    1
    35    18    19    1
    36    18    20    1
    37    18    25    1
    38    20    24    1
    39    20    21    2
    40    21    22    1
    41    22    23    2
    42    22    41    1
    43    23    24    1
    44    23    42    1
    45    25    43    1
    46    25    44    1
@<TRIPOS>SUBSTRUCTURE
     1 ZINC000179743483        1 TEMP              0 ****  ****    0 ROOT


##########                                Name:    ZINC000425987417
##########                DOCK_Rotatable_Bonds:                   9
##########                         Heavy_Atoms:                  25
##########                    Molecular_Weight:             357.419
##########                DOCK_Rotatable_Bonds:                   9
##########                       Formal_Charge:         -0.00999992
##########                     HBond_Acceptors:                   7
##########                        HBond_Donors:                   1
##########                         Heavy_Atoms:                  25
##########                          Grid_Score:          -29.095690
##########                     Grid_vdw_energy:          -27.975819
##########                      Grid_es_energy:           -1.119872
##########           Internal_energy_repulsive:           10.780001

@<TRIPOS>MOLECULE
ZINC000425987417
 51 52 1 0 0
SMALL
USER_CHARGES


@<TRIPOS>ATOM
      1 C1         -5.1151    3.5226   56.8064 C.3     1  ZINC000425987417   -0.1500
      2 C2         -3.8368    4.3583   56.8993 C.3     1  ZINC000425987417    0.0400
      3 N3         -2.8257    3.8098   55.9857 N.3     1  ZINC000425987417   -0.5300
      4 C4         -2.7890    4.5653   54.7263 C.3     1  ZINC000425987417    0.0400
      5 C5         -2.4280    3.6227   53.5765 C.3     1  ZINC000425987417    0.1400
      6 N6         -3.6484    3.0100   53.0459 N.am    1  ZINC000425987417   -0.7500
      7 C7         -4.4043    3.6782   52.1522 C.2     1  ZINC000425987417    0.7200
      8 O8         -4.0734    4.7894   51.7864 O.2     1  ZINC000425987417   -0.5800
      9 N9         -5.5270    3.1145   51.6641 N.am    1  ZINC000425987417   -0.6200
     10 C10        -6.3744    3.8178   50.6870 C.3     1  ZINC000425987417    0.1300
     11 C11        -7.7305    4.0766   51.3416 C.3     1  ZINC000425987417   -0.1000
     12 C12        -8.2497    2.8307   52.0096 C.ar    1  ZINC000425987417   -0.0600
     13 C13        -9.6123    2.7601   52.2713 C.ar    1  ZINC000425987417   -0.1200
     14 C14       -10.1517    1.6511   52.8896 C.ar    1  ZINC000425987417   -0.1100
     15 C15        -9.3312    0.6002   53.2545 C.ar    1  ZINC000425987417   -0.1200
     16 C16        -7.9778    0.6662   52.9927 C.ar    1  ZINC000425987417   -0.1100
     17 C17        -7.4350    1.7789   52.3655 C.ar    1  ZINC000425987417   -0.0900
     18 C18        -5.9502    1.7732   52.0806 C.3     1  ZINC000425987417    0.1800
     19 H19        -5.4090    1.4856   52.9820 H       1  ZINC000425987417    0.0900
     20 C20        -5.6499    0.7703   50.9647 C.3     1  ZINC000425987417   -0.1600
     21 C21        -1.5017    3.7814   56.6214 C.3     1  ZINC000425987417    0.0500
     22 C22        -1.4178    2.5854   57.5719 C.3     1  ZINC000425987417   -0.1600
     23 C23        -0.0066    2.4962   58.1561 C.3     1  ZINC000425987417    0.4500
     24 F24         0.2650    3.6510   58.8977 F       1  ZINC000425987417   -0.1800
     25 F25         0.0837    1.3755   58.9884 F       1  ZINC000425987417   -0.1800
     26 F26         0.9221    2.3809   57.1162 F       1  ZINC000425987417   -0.1900
     27 H27        -4.9061    2.5021   57.1273 H       1  ZINC000425987417    0.0500
     28 H28        -5.8804    3.9564   57.4500 H       1  ZINC000425987417    0.0600
     29 H29        -5.4694    3.5139   55.7757 H       1  ZINC000425987417    0.0700
     30 H30        -4.0559    5.3894   56.6220 H       1  ZINC000425987417    0.0800
     31 H31        -3.4574    4.3294   57.9207 H       1  ZINC000425987417    0.0400
     32 H32        -3.7674    5.0081   54.5397 H       1  ZINC000425987417    0.0500
     33 H33        -2.0407    5.3546   54.7978 H       1  ZINC000425987417    0.0800
     34 H34        -1.9316    4.1866   52.7868 H       1  ZINC000425987417    0.0800
     35 H35        -1.7594    2.8433   53.9419 H       1  ZINC000425987417    0.0700
     36 H36        -3.9124    2.1235   53.3378 H       1  ZINC000425987417    0.3900
     37 H37        -5.9111    4.7653   50.4116 H       1  ZINC000425987417    0.1000
     38 H38        -6.5054    3.1989   49.7994 H       1  ZINC000425987417    0.0700
     39 H39        -7.6244    4.8651   52.0865 H       1  ZINC000425987417    0.0800
     40 H40        -8.4410    4.3974   50.5797 H       1  ZINC000425987417    0.0900
     41 H41       -10.2549    3.5807   51.9886 H       1  ZINC000425987417    0.1200
     42 H42       -11.2122    1.6043   53.0885 H       1  ZINC000425987417    0.1200
     43 H43        -9.7474   -0.2686   53.7426 H       1  ZINC000425987417    0.1200
     44 H44        -7.3362   -0.1543   53.2782 H       1  ZINC000425987417    0.1200
     45 H45        -6.1920    1.0564   50.0635 H       1  ZINC000425987417    0.0700
     46 H46        -4.5795    0.7657   50.7588 H       1  ZINC000425987417    0.0600
     47 H47        -5.9642   -0.2256   51.2769 H       1  ZINC000425987417    0.0700
     48 H48        -0.7323    3.6908   55.8546 H       1  ZINC000425987417    0.0500
     49 H49        -1.3484    4.7031   57.1827 H       1  ZINC000425987417    0.0900
     50 H50        -2.1382    2.7123   58.3800 H       1  ZINC000425987417    0.1200
     51 H51        -1.6431    1.6701   57.0247 H       1  ZINC000425987417    0.1100
@<TRIPOS>BOND
     1     1     2    1
     2     1    27    1
     3     1    28    1
     4     1    29    1
     5     2     3    1
     6     2    30    1
     7     2    31    1
     8     3     4    1
     9     3    21    1
    10     4     5    1
    11     4    32    1
    12     4    33    1
    13     5     6    1
    14     5    34    1
    15     5    35    1
    16     6     7   am
    17     6    36    1
    18     7     8    2
    19     7     9   am
    20     9    18    1
    21     9    10    1
    22    10    11    1
    23    10    37    1
    24    10    38    1
    25    11    12    1
    26    11    39    1
    27    11    40    1
    28    12    17   ar
    29    12    13   ar
    30    13    14   ar
    31    13    41    1
    32    14    15   ar
    33    14    42    1
    34    15    16   ar
    35    15    43    1
    36    16    17   ar
    37    16    44    1
    38    17    18    1
    39    18    19    1
    40    18    20    1
    41    20    45    1
    42    20    46    1
    43    20    47    1
    44    21    22    1
    45    21    48    1
    46    21    49    1
    47    22    23    1
    48    22    50    1
    49    22    51    1
    50    23    24    1
    51    23    25    1
    52    23    26    1
@<TRIPOS>SUBSTRUCTURE
     1 ZINC000425987417        1 TEMP              0 ****  ****    0 ROOT


##########                                Name:    ZINC000970996691
##########                DOCK_Rotatable_Bonds:                   7
##########                         Heavy_Atoms:                  24
##########                    Molecular_Weight:             334.462
##########                DOCK_Rotatable_Bonds:                   7
##########                       Formal_Charge:          -0.0199999
##########                     HBond_Acceptors:                   6
##########                        HBond_Donors:                   0
##########                         Heavy_Atoms:                  24
##########                          Grid_Score:          -29.094822
##########                     Grid_vdw_energy:          -29.668953
##########                      Grid_es_energy:            0.574131
##########           Internal_energy_repulsive:           10.613884

@<TRIPOS>MOLECULE
ZINC000970996691
 54 56 1 0 0
SMALL
USER_CHARGES


@<TRIPOS>ATOM
      1 C1          3.2529    3.2620   51.3468 C.3     1  ZINC000970996691   -0.1500
      2 C2          1.8316    2.9869   51.8416 C.3     1  ZINC000970996691   -0.1200
      3 C3          0.8435    3.1844   50.6902 C.3     1  ZINC000970996691   -0.0300
      4 C4         -0.5440    2.8189   51.1507 C.2     1  ZINC000970996691    0.1800
      5 N5         -1.5131    2.3414   50.4076 N.2     1  ZINC000970996691   -0.4700
      6 C6         -2.5556    2.1681   51.2395 C.2     1  ZINC000970996691    0.1800
      7 C7         -3.9158    1.6373   50.8665 C.3     1  ZINC000970996691    0.1500
      8 N8         -4.9537    2.4666   51.4933 N.3     1  ZINC000970996691   -0.5200
      9 C9         -5.0122    3.7961   50.8713 C.3     1  ZINC000970996691    0.0200
     10 C10        -6.2627    1.8019   51.4388 C.3     1  ZINC000970996691    0.0700
     11 H11        -6.5914    1.6749   50.4074 H       1  ZINC000970996691    0.0600
     12 C12        -6.2267    0.4408   52.1826 C.3     1  ZINC000970996691   -0.1300
     13 C13        -7.6951    0.2441   52.6149 C.3     1  ZINC000970996691    0.1000
     14 N14        -8.3251    1.5723   52.6371 N.am    1  ZINC000970996691   -0.6200
     15 C15        -9.6121    1.8261   52.9467 C.2     1  ZINC000970996691    0.5300
     16 O16       -10.0258    2.9661   52.9325 O.2     1  ZINC000970996691   -0.5300
     17 C17       -10.5371    0.6933   53.3104 C.3     1  ZINC000970996691   -0.1000
     18 C18       -10.5564    0.5186   54.8302 C.3     1  ZINC000970996691   -0.1100
     19 C19       -11.4956   -0.6315   55.1994 C.3     1  ZINC000970996691   -0.1200
     20 C20       -12.9083   -0.3152   54.7044 C.3     1  ZINC000970996691   -0.1200
     21 C21       -12.8890   -0.1404   53.1845 C.3     1  ZINC000970996691   -0.1200
     22 C22       -11.9499    1.0096   52.8154 C.3     1  ZINC000970996691   -0.1000
     23 C23        -7.3160    2.5813   52.2652 C.3     1  ZINC000970996691    0.1200
     24 N24        -2.1745    2.5422   52.4242 N.2     1  ZINC000970996691   -0.3800
     25 O25        -1.0202    2.9140   52.3959 O.3     1  ZINC000970996691    0.0800
     26 H26         3.4957    2.5734   50.5376 H       1  ZINC000970996691    0.0600
     27 H27         3.3190    4.2875   50.9833 H       1  ZINC000970996691    0.0600
     28 H28         3.9569    3.1213   52.1671 H       1  ZINC000970996691    0.0600
     29 H29         1.7655    1.9613   52.2052 H       1  ZINC000970996691    0.0700
     30 H30         1.5888    3.6755   52.6509 H       1  ZINC000970996691    0.0700
     31 H31         0.8584    4.2273   50.3737 H       1  ZINC000970996691    0.1100
     32 H32         1.1284    2.5466   49.8535 H       1  ZINC000970996691    0.1000
     33 H33        -4.0326    1.6662   49.7832 H       1  ZINC000970996691    0.0700
     34 H34        -4.0126    0.6090   51.2150 H       1  ZINC000970996691    0.1100
     35 H35        -5.2416    3.6914   49.8109 H       1  ZINC000970996691    0.0300
     36 H36        -5.7887    4.3893   51.3542 H       1  ZINC000970996691    0.0800
     37 H37        -4.0495    4.2942   50.9874 H       1  ZINC000970996691    0.0700
     38 H38        -5.9122   -0.3577   51.5107 H       1  ZINC000970996691    0.0800
     39 H39        -5.5723    0.4941   53.0529 H       1  ZINC000970996691    0.0900
     40 H40        -8.2091   -0.3981   51.8999 H       1  ZINC000970996691    0.0700
     41 H41        -7.7324   -0.2005   53.6094 H       1  ZINC000970996691    0.0700
     42 H42       -10.1859   -0.2267   52.8432 H       1  ZINC000970996691    0.0900
     43 H43        -9.5499    0.2932   55.1828 H       1  ZINC000970996691    0.0700
     44 H44       -10.9076    1.4386   55.2973 H       1  ZINC000970996691    0.0700
     45 H45       -11.1444   -1.5515   54.7323 H       1  ZINC000970996691    0.0600
     46 H46       -11.5093   -0.7560   56.2821 H       1  ZINC000970996691    0.0700
     47 H47       -13.5774   -1.1346   54.9674 H       1  ZINC000970996691    0.0600
     48 H48       -13.2594    0.6049   55.1715 H       1  ZINC000970996691    0.0600
     49 H49       -12.5379   -1.0605   52.7174 H       1  ZINC000970996691    0.0600
     50 H50       -13.8955    0.0849   52.8319 H       1  ZINC000970996691    0.0700
     51 H51       -12.3010    1.9297   53.2824 H       1  ZINC000970996691    0.0800
     52 H52       -11.9361    1.1342   51.7325 H       1  ZINC000970996691    0.0600
     53 H53        -6.8577    3.0065   53.1581 H       1  ZINC000970996691    0.0800
     54 H54        -7.7695    3.3662   51.6600 H       1  ZINC000970996691    0.0800
@<TRIPOS>BOND
     1     1     2    1
     2     1    26    1
     3     1    27    1
     4     1    28    1
     5     2     3    1
     6     2    29    1
     7     2    30    1
     8     3     4    1
     9     3    31    1
    10     3    32    1
    11     4    25    1
    12     4     5    2
    13     5     6    1
    14     6     7    1
    15     6    24    2
    16     7     8    1
    17     7    33    1
    18     7    34    1
    19     8     9    1
    20     8    10    1
    21     9    35    1
    22     9    36    1
    23     9    37    1
    24    10    11    1
    25    10    23    1
    26    10    12    1
    27    12    13    1
    28    12    38    1
    29    12    39    1
    30    13    14    1
    31    13    40    1
    32    13    41    1
    33    14    15   am
    34    14    23    1
    35    15    16    2
    36    15    17    1
    37    17    22    1
    38    17    18    1
    39    17    42    1
    40    18    19    1
    41    18    43    1
    42    18    44    1
    43    19    20    1
    44    19    45    1
    45    19    46    1
    46    20    21    1
    47    20    47    1
    48    20    48    1
    49    21    22    1
    50    21    49    1
    51    21    50    1
    52    22    51    1
    53    22    52    1
    54    23    53    1
    55    23    54    1
    56    24    25    1
@<TRIPOS>SUBSTRUCTURE
     1 ZINC000970996691        1 TEMP              0 ****  ****    0 ROOT


##########                                Name:    ZINC001199210165
##########                DOCK_Rotatable_Bonds:                   5
##########                         Heavy_Atoms:                  23
##########                    Molecular_Weight:             375.225
##########                DOCK_Rotatable_Bonds:                   5
##########                       Formal_Charge:         -0.00999999
##########                     HBond_Acceptors:                   6
##########                        HBond_Donors:                   2
##########                         Heavy_Atoms:                  23
##########                          Grid_Score:          -29.086103
##########                     Grid_vdw_energy:          -27.482462
##########                      Grid_es_energy:           -1.603642
##########           Internal_energy_repulsive:           15.639381

@<TRIPOS>MOLECULE
ZINC001199210165
 38 40 1 0 0
SMALL
USER_CHARGES


@<TRIPOS>ATOM
      1 C1          3.1834    3.0068   46.5822 C.3     1  ZINC001199210165   -0.1700
      2 C2          3.2293    1.4776   46.6005 C.3     1  ZINC001199210165    0.0800
      3 C3          3.9982    0.9757   45.3767 C.3     1  ZINC001199210165   -0.1500
      4 O4          3.8859    1.0349   47.7901 O.3     1  ZINC001199210165   -0.3000
      5 C5          3.2300    1.2244   48.9627 C.ar    1  ZINC001199210165    0.3300
      6 C6          1.8658    1.4825   48.9520 C.ar    1  ZINC001199210165   -0.1300
      7 C7          1.2049    1.6754   50.1668 C.ar    1  ZINC001199210165   -0.0600
      8 C8         -0.2496    1.9527   50.2056 C.2     1  ZINC001199210165    0.5700
      9 O9         -0.8731    2.0729   49.1695 O.2     1  ZINC001199210165   -0.4900
     10 N10        -0.8814    2.0720   51.3901 N.am    1  ZINC001199210165   -0.6600
     11 C11        -2.2543    2.3338   51.4268 C.ar    1  ZINC001199210165    0.2000
     12 C12        -2.7077    3.6046   51.7842 C.ar    1  ZINC001199210165   -0.1500
     13 C13        -4.0426    3.8782   51.8251 C.ar    1  ZINC001199210165   -0.0200
     14 C14        -4.9692    2.8790   51.5064 C.ar    1  ZINC001199210165   -0.1700
     15 C15        -6.4275    2.8323   51.4507 C.2     1  ZINC001199210165    0.0900
     16 Br16       -7.6038    4.2627   51.8331 Br      1  ZINC001199210165    0.0600
     17 N17        -6.7737    1.6292   51.0898 N.2     1  ZINC001199210165   -0.2100
     18 N18        -5.6356    0.8404   50.8927 N.pl3   1  ZINC001199210165   -0.4900
     19 C19        -4.5187    1.5942   51.1448 C.ar    1  ZINC001199210165    0.1500
     20 C20        -3.1525    1.3334   51.1031 C.ar    1  ZINC001199210165   -0.1700
     21 C21         1.9536    1.5991   51.3467 C.ar    1  ZINC001199210165   -0.1900
     22 C22         3.3066    1.3383   51.2681 C.ar    1  ZINC001199210165    0.1400
     23 N23         3.8963    1.1561   50.1026 N.ar    1  ZINC001199210165   -0.5200
     24 H24         4.1994    3.4010   46.6047 H       1  ZINC001199210165    0.0600
     25 H25         2.6827    3.3445   45.6750 H       1  ZINC001199210165    0.0700
     26 H26         2.6357    3.3643   47.4541 H       1  ZINC001199210165    0.0600
     27 H27         2.2134    1.0833   46.5781 H       1  ZINC001199210165    0.0900
     28 H28         5.0143    1.3700   45.3992 H       1  ZINC001199210165    0.0700
     29 H29         4.0309   -0.1138   45.3897 H       1  ZINC001199210165    0.0600
     30 H30         3.4975    1.3134   44.4694 H       1  ZINC001199210165    0.0800
     31 H31         1.3245    1.5335   48.0188 H       1  ZINC001199210165    0.1600
     32 H32        -0.3837    1.9761   52.2172 H       1  ZINC001199210165    0.4100
     33 H33        -1.9949    4.3776   52.0309 H       1  ZINC001199210165    0.1500
     34 H34        -4.3845    4.8643   52.1031 H       1  ZINC001199210165    0.1400
     35 H35        -5.6366   -0.0907   50.6209 H       1  ZINC001199210165    0.4500
     36 H36        -2.7955    0.3536   50.8224 H       1  ZINC001199210165    0.1400
     37 H37         1.4790    1.7429   52.3060 H       1  ZINC001199210165    0.1400
     38 H38         3.8904    1.2784   52.1747 H       1  ZINC001199210165    0.1700
@<TRIPOS>BOND
     1     1     2    1
     2     1    24    1
     3     1    25    1
     4     1    26    1
     5     2     3    1
     6     2     4    1
     7     2    27    1
     8     3    28    1
     9     3    29    1
    10     3    30    1
    11     4     5    1
    12     5    23   ar
    13     5     6   ar
    14     6     7   ar
    15     6    31    1
    16     7     8    1
    17     7    21   ar
    18     8     9    2
    19     8    10   am
    20    10    11    1
    21    10    32    1
    22    11    20   ar
    23    11    12   ar
    24    12    13   ar
    25    12    33    1
    26    13    14   ar
    27    13    34    1
    28    14    19   ar
    29    14    15    1
    30    15    16    1
    31    15    17    2
    32    17    18    1
    33    18    19    1
    34    18    35    1
    35    19    20   ar
    36    20    36    1
    37    21    22   ar
    38    21    37    1
    39    22    23   ar
    40    22    38    1
@<TRIPOS>SUBSTRUCTURE
     1 ZINC001199210165        1 TEMP              0 ****  ****    0 ROOT


##########                                Name:    ZINC000623581528
##########                DOCK_Rotatable_Bonds:                   5
##########                         Heavy_Atoms:                  26
##########                    Molecular_Weight:             355.369
##########                DOCK_Rotatable_Bonds:                   5
##########                       Formal_Charge:        -4.47035e-07
##########                     HBond_Acceptors:                   7
##########                        HBond_Donors:                   2
##########                         Heavy_Atoms:                  26
##########                          Grid_Score:          -29.079039
##########                     Grid_vdw_energy:          -27.569973
##########                      Grid_es_energy:           -1.509066
##########           Internal_energy_repulsive:            3.176991

@<TRIPOS>MOLECULE
ZINC000623581528
 44 47 1 0 0
SMALL
USER_CHARGES


@<TRIPOS>ATOM
      1 C1          0.6013    2.2135   50.4163 C.3     1  ZINC000623581528    0.1000
      2 N2         -0.8529    2.2326   50.5928 N.am    1  ZINC000623581528   -0.5500
      3 C3         -1.7691    1.7926   49.7077 C.2     1  ZINC000623581528    0.6300
      4 O4         -1.5193    1.3095   48.6202 O.2     1  ZINC000623581528   -0.4800
      5 O5         -3.0000    1.9702   50.2127 O.3     1  ZINC000623581528   -0.2300
      6 C6         -2.9002    2.5323   51.4421 C.ar    1  ZINC000623581528    0.0400
      7 C7         -3.8406    2.9201   52.3832 C.ar    1  ZINC000623581528   -0.0800
      8 C8         -3.4297    3.4794   53.5779 C.ar    1  ZINC000623581528   -0.0900
      9 C9         -2.0825    3.6553   53.8399 C.ar    1  ZINC000623581528   -0.0900
     10 C10        -1.6445    4.2663   55.1460 C.3     1  ZINC000623581528    0.1800
     11 N11        -1.1151    3.2184   56.0222 N.am    1  ZINC000623581528   -0.7400
     12 C12        -0.2713    3.5394   57.0229 C.2     1  ZINC000623581528    0.7100
     13 O13         0.0518    4.6984   57.1976 O.2     1  ZINC000623581528   -0.5800
     14 N14         0.2144    2.5754   57.8300 N.am    1  ZINC000623581528   -0.7300
     15 C15         1.1303    2.9245   58.9189 C.3     1  ZINC000623581528    0.2000
     16 H16         0.8409    3.8757   59.3654 H       1  ZINC000623581528    0.1000
     17 C17         2.5807    2.9977   58.3960 C.3     1  ZINC000623581528   -0.1300
     18 C18         3.0998    1.5678   58.6575 C.3     1  ZINC000623581528   -0.0800
     19 C19         2.2735    1.0521   59.8162 C.ar    1  ZINC000623581528   -0.1000
     20 C20         2.4949   -0.0147   60.6709 C.ar    1  ZINC000623581528   -0.0800
     21 C21         1.5895   -0.3027   61.6732 C.ar    1  ZINC000623581528   -0.1400
     22 C22         0.4559    0.4774   61.8245 C.ar    1  ZINC000623581528    0.0900
     23 F23        -0.4315    0.1987   62.8043 F       1  ZINC000623581528   -0.1400
     24 C24         0.2336    1.5433   60.9707 C.ar    1  ZINC000623581528   -0.1200
     25 C25         1.1395    1.8331   59.9676 C.ar    1  ZINC000623581528   -0.0900
     26 C26        -1.1376    3.2718   52.9076 C.ar    1  ZINC000623581528   -0.0800
     27 C27        -1.5419    2.7041   51.7099 C.ar    1  ZINC000623581528    0.0700
     28 H28         1.0005    1.2713   50.7918 H       1  ZINC000623581528    0.0800
     29 H29         0.8402    2.3129   49.3574 H       1  ZINC000623581528    0.0900
     30 H30         1.0453    3.0420   50.9682 H       1  ZINC000623581528    0.0900
     31 H31        -4.8932    2.7855   52.1829 H       1  ZINC000623581528    0.1500
     32 H32        -4.1636    3.7812   54.3105 H       1  ZINC000623581528    0.1500
     33 H33        -0.8690    5.0088   54.9578 H       1  ZINC000623581528    0.0800
     34 H34        -2.4973    4.7456   55.6270 H       1  ZINC000623581528    0.0800
     35 H35        -1.3720    2.2935   55.8821 H       1  ZINC000623581528    0.4000
     36 H36        -0.0422    1.6506   57.6899 H       1  ZINC000623581528    0.4000
     37 H37         2.5973    3.2271   57.3306 H       1  ZINC000623581528    0.0900
     38 H38         3.1595    3.7291   58.9600 H       1  ZINC000623581528    0.0900
     39 H39         2.9478    0.9434   57.7771 H       1  ZINC000623581528    0.0800
     40 H40         4.1556    1.5922   58.9271 H       1  ZINC000623581528    0.0800
     41 H41         3.3790   -0.6236   60.5534 H       1  ZINC000623581528    0.1300
     42 H42         1.7655   -1.1355   62.3379 H       1  ZINC000623581528    0.1400
     43 H43        -0.6506    2.1521   61.0883 H       1  ZINC000623581528    0.1400
     44 H44        -0.0865    3.4098   53.1138 H       1  ZINC000623581528    0.1400
@<TRIPOS>BOND
     1     1     2    1
     2     1    28    1
     3     1    29    1
     4     1    30    1
     5     2    27    1
     6     2     3   am
     7     3     4    2
     8     3     5    1
     9     5     6    1
    10     6    27   ar
    11     6     7   ar
    12     7     8   ar
    13     7    31    1
    14     8     9   ar
    15     8    32    1
    16     9    10    1
    17     9    26   ar
    18    10    11    1
    19    10    33    1
    20    10    34    1
    21    11    12   am
    22    11    35    1
    23    12    13    2
    24    12    14   am
    25    14    15    1
    26    14    36    1
    27    15    16    1
    28    15    25    1
    29    15    17    1
    30    17    18    1
    31    17    37    1
    32    17    38    1
    33    18    19    1
    34    18    39    1
    35    18    40    1
    36    19    25   ar
    37    19    20   ar
    38    20    21   ar
    39    20    41    1
    40    21    22   ar
    41    21    42    1
    42    22    23    1
    43    22    24   ar
    44    24    25   ar
    45    24    43    1
    46    26    27   ar
    47    26    44    1
@<TRIPOS>SUBSTRUCTURE
     1 ZINC000623581528        1 TEMP              0 ****  ****    0 ROOT


##########                                Name:    ZINC000089894387
##########                DOCK_Rotatable_Bonds:                   8
##########                         Heavy_Atoms:                  22
##########                    Molecular_Weight:             326.823
##########                DOCK_Rotatable_Bonds:                   8
##########                       Formal_Charge:          -0.0300003
##########                     HBond_Acceptors:                   6
##########                        HBond_Donors:                   2
##########                         Heavy_Atoms:                  22
##########                          Grid_Score:          -29.037838
##########                     Grid_vdw_energy:          -28.807037
##########                      Grid_es_energy:           -0.230801
##########           Internal_energy_repulsive:           13.123529

@<TRIPOS>MOLECULE
ZINC000089894387
 45 46 1 0 0
SMALL
USER_CHARGES


@<TRIPOS>ATOM
      1 C1        -12.7340    1.6160   52.4004 C.3     1  ZINC000089894387   -0.1700
      2 C2        -11.8524    0.5329   53.0254 C.3     1  ZINC000089894387    0.1700
      3 H3        -12.0009   -0.4075   52.4947 H       1  ZINC000089894387    0.0900
      4 N4        -10.4461    0.9317   52.9282 N.am    1  ZINC000089894387   -0.7400
      5 C5         -9.5068    0.0181   52.6128 C.2     1  ZINC000089894387    0.7100
      6 O6         -9.8263   -1.1375   52.4105 O.2     1  ZINC000089894387   -0.5900
      7 N7         -8.2132    0.3853   52.5218 N.am    1  ZINC000089894387   -0.7500
      8 C8         -7.1925   -0.6075   52.1773 C.3     1  ZINC000089894387    0.1400
      9 C9         -5.8737    0.1036   51.8671 C.3     1  ZINC000089894387    0.0500
     10 O10        -6.1022    1.1305   50.9001 O.3     1  ZINC000089894387   -0.3100
     11 C11        -5.3342    2.2478   50.9934 C.ar    1  ZINC000089894387    0.1400
     12 C12        -5.9320    3.4968   51.0760 C.ar    1  ZINC000089894387   -0.2100
     13 C13        -5.1496    4.6317   51.1708 C.ar    1  ZINC000089894387   -0.0700
     14 C14        -3.7716    4.5238   51.1835 C.ar    1  ZINC000089894387   -0.1500
     15 C15        -3.1720    3.2789   51.1009 C.ar    1  ZINC000089894387    0.0000
     16 Cl16       -1.4412    3.1468   51.1172 Cl      1  ZINC000089894387   -0.0600
     17 C17        -3.9511    2.1404   51.0121 C.ar    1  ZINC000089894387   -0.1500
     18 C18       -12.2310    0.3534   54.4968 C.3     1  ZINC000089894387   -0.1000
     19 C19       -13.6815   -0.1283   54.5976 C.3     1  ZINC000089894387   -0.1600
     20 C20       -14.0264   -0.3805   56.0678 C.3     1  ZINC000089894387    0.0600
     21 O21       -13.1153   -1.3375   56.6120 O.3     1  ZINC000089894387   -0.3800
     22 C22       -11.7485   -0.9213   56.5879 C.3     1  ZINC000089894387    0.0600
     23 C23       -11.3121   -0.6908   55.1386 C.3     1  ZINC000089894387   -0.1500
     24 H24       -12.5855    2.5564   52.9312 H       1  ZINC000089894387    0.0600
     25 H25       -12.4643    1.7439   51.3521 H       1  ZINC000089894387    0.0600
     26 H26       -13.7803    1.3193   52.4727 H       1  ZINC000089894387    0.0700
     27 H27       -10.1910    1.8534   53.0908 H       1  ZINC000089894387    0.3900
     28 H28        -7.9581    1.3069   52.6844 H       1  ZINC000089894387    0.4000
     29 H29        -7.0496   -1.2880   53.0166 H       1  ZINC000089894387    0.0800
     30 H30        -7.5153   -1.1720   51.3025 H       1  ZINC000089894387    0.0900
     31 H31        -5.4761    0.5464   52.7804 H       1  ZINC000089894387    0.0900
     32 H32        -5.1574   -0.6160   51.4705 H       1  ZINC000089894387    0.0700
     33 H33        -7.0086    3.5822   51.0657 H       1  ZINC000089894387    0.1300
     34 H34        -5.6151    5.6040   51.2346 H       1  ZINC000089894387    0.1400
     35 H35        -3.1618    5.4120   51.2577 H       1  ZINC000089894387    0.1400
     36 H36        -3.4834    1.1691   50.9481 H       1  ZINC000089894387    0.1400
     37 H37       -12.1238    1.3039   55.0195 H       1  ZINC000089894387    0.0800
     38 H38       -14.3474    0.6339   54.1928 H       1  ZINC000089894387    0.0700
     39 H39       -13.7985   -1.0529   54.0323 H       1  ZINC000089894387    0.0800
     40 H40       -13.9485    0.5532   56.6247 H       1  ZINC000089894387    0.0500
     41 H41       -15.0439   -0.7642   56.1418 H       1  ZINC000089894387    0.0900
     42 H42       -11.6408    0.0054   57.1517 H       1  ZINC000089894387    0.0500
     43 H43       -11.1251   -1.6945   57.0366 H       1  ZINC000089894387    0.1000
     44 H44       -11.3812   -1.6268   54.5843 H       1  ZINC000089894387    0.0800
     45 H45       -10.2834   -0.3309   55.1208 H       1  ZINC000089894387    0.0800
@<TRIPOS>BOND
     1     1     2    1
     2     1    24    1
     3     1    25    1
     4     1    26    1
     5     2     3    1
     6     2     4    1
     7     2    18    1
     8     4     5   am
     9     4    27    1
    10     5     6    2
    11     5     7   am
    12     7     8    1
    13     7    28    1
    14     8     9    1
    15     8    29    1
    16     8    30    1
    17     9    10    1
    18     9    31    1
    19     9    32    1
    20    10    11    1
    21    11    17   ar
    22    11    12   ar
    23    12    13   ar
    24    12    33    1
    25    13    14   ar
    26    13    34    1
    27    14    15   ar
    28    14    35    1
    29    15    16    1
    30    15    17   ar
    31    17    36    1
    32    18    23    1
    33    18    19    1
    34    18    37    1
    35    19    20    1
    36    19    38    1
    37    19    39    1
    38    20    21    1
    39    20    40    1
    40    20    41    1
    41    21    22    1
    42    22    23    1
    43    22    42    1
    44    22    43    1
    45    23    44    1
    46    23    45    1
@<TRIPOS>SUBSTRUCTURE
     1 ZINC000089894387        1 TEMP              0 ****  ****    0 ROOT


##########                                Name:    ZINC001074839487
##########                DOCK_Rotatable_Bonds:                   7
##########                         Heavy_Atoms:                  25
##########                    Molecular_Weight:             344.454
##########                DOCK_Rotatable_Bonds:                   7
##########                       Formal_Charge:          -0.0500005
##########                     HBond_Acceptors:                   5
##########                        HBond_Donors:                   1
##########                         Heavy_Atoms:                  25
##########                          Grid_Score:          -29.036102
##########                     Grid_vdw_energy:          -27.674442
##########                      Grid_es_energy:           -1.361660
##########           Internal_energy_repulsive:           93.746246

@<TRIPOS>MOLECULE
ZINC001074839487
 53 55 1 0 0
SMALL
USER_CHARGES


@<TRIPOS>ATOM
      1 C1          0.4795    2.7628   50.3712 C.3     1  ZINC001074839487   -0.1500
      2 C2          0.3069    3.8946   51.3862 C.3     1  ZINC001074839487   -0.1300
      3 C3         -1.1837    4.1682   51.5965 C.3     1  ZINC001074839487   -0.1100
      4 C4         -1.8127    3.0037   52.3640 C.3     1  ZINC001074839487   -0.1400
      5 C5         -2.8887    2.3693   51.5210 C.2     1  ZINC001074839487    0.5100
      6 O6         -2.7223    2.2325   50.3275 O.2     1  ZINC001074839487   -0.5400
      7 N7         -4.0360    1.9537   52.0934 N.am    1  ZINC001074839487   -0.7300
      8 C8         -5.0827    1.3386   51.2736 C.3     1  ZINC001074839487    0.1400
      9 H9         -4.6254    0.6820   50.5333 H       1  ZINC001074839487    0.0900
     10 C10        -6.0187    0.5235   52.1690 C.3     1  ZINC001074839487   -0.1500
     11 C11        -6.6331    1.4427   53.2293 C.3     1  ZINC001074839487    0.0700
     12 N12        -7.2793    2.5769   52.5549 N.am    1  ZINC001074839487   -0.6000
     13 C13        -8.5685    2.8805   52.8046 C.2     1  ZINC001074839487    0.5600
     14 O14        -9.0916    3.8214   52.2403 O.2     1  ZINC001074839487   -0.5200
     15 C15        -9.3464    2.0691   53.7650 C.ar    1  ZINC001074839487   -0.1300
     16 C16        -9.1940    2.2709   55.1375 C.ar    1  ZINC001074839487   -0.1000
     17 C17        -9.9227    1.5106   56.0299 C.ar    1  ZINC001074839487   -0.1000
     18 C18       -10.8013    0.5513   55.5666 C.ar    1  ZINC001074839487   -0.1100
     19 C19       -11.7199   -0.4189   56.2731 C.3     1  ZINC001074839487    0.0900
     20 O20       -12.0551   -1.4261   55.3012 O.3     1  ZINC001074839487   -0.3600
     21 C21       -11.9761   -0.7568   54.0294 C.3     1  ZINC001074839487    0.0900
     22 C22       -10.9573    0.3456   54.2027 C.ar    1  ZINC001074839487   -0.1400
     23 C23       -10.2408    1.1013   53.3024 C.ar    1  ZINC001074839487   -0.0400
     24 C24        -6.4937    3.3734   51.6026 C.3     1  ZINC001074839487    0.1500
     25 H25        -5.6992    3.8982   52.1333 H       1  ZINC001074839487    0.0700
     26 C26        -7.4051    4.3861   50.9063 C.3     1  ZINC001074839487   -0.1400
     27 C27        -5.8807    2.4327   50.5605 C.3     1  ZINC001074839487   -0.1400
     28 H28        -0.0060    1.8617   50.7458 H       1  ZINC001074839487    0.0500
     29 H29         1.5414    2.5680   50.2213 H       1  ZINC001074839487    0.0500
     30 H30         0.0259    3.0526   49.4233 H       1  ZINC001074839487    0.0500
     31 H31         0.7604    3.6049   52.3341 H       1  ZINC001074839487    0.0600
     32 H32         0.7923    4.7958   51.0116 H       1  ZINC001074839487    0.0600
     33 H33        -1.3072    5.0885   52.1674 H       1  ZINC001074839487    0.0700
     34 H34        -1.6740    4.2724   50.6286 H       1  ZINC001074839487    0.0700
     35 H35        -1.0463    2.2632   52.5927 H       1  ZINC001074839487    0.0900
     36 H36        -2.2490    3.3735   53.2919 H       1  ZINC001074839487    0.0900
     37 H37        -4.1686    2.0620   53.0481 H       1  ZINC001074839487    0.4000
     38 H38        -6.8120    0.0859   51.5631 H       1  ZINC001074839487    0.0800
     39 H39        -5.4541   -0.2701   52.6585 H       1  ZINC001074839487    0.0800
     40 H40        -7.3745    0.8902   53.8066 H       1  ZINC001074839487    0.1200
     41 H41        -5.8500    1.8100   53.8927 H       1  ZINC001074839487    0.0700
     42 H42        -8.5073    3.0213   55.5009 H       1  ZINC001074839487    0.1500
     43 H43        -9.8057    1.6664   57.0922 H       1  ZINC001074839487    0.1400
     44 H44       -11.2070   -0.8716   57.1216 H       1  ZINC001074839487    0.1000
     45 H45       -12.6214    0.0940   56.6085 H       1  ZINC001074839487    0.0800
     46 H46       -11.6479   -1.4535   53.2581 H       1  ZINC001074839487    0.1000
     47 H47       -12.9458   -0.3341   53.7667 H       1  ZINC001074839487    0.0800
     48 H48       -10.3667    0.9434   52.2415 H       1  ZINC001074839487    0.1400
     49 H49        -7.7556    5.1192   51.6329 H       1  ZINC001074839487    0.0800
     50 H50        -6.8491    4.8932   50.1177 H       1  ZINC001074839487    0.0500
     51 H51        -8.2598    3.8673   50.4723 H       1  ZINC001074839487    0.0700
     52 H52        -5.2180    2.9978   49.9052 H       1  ZINC001074839487    0.0900
     53 H53        -6.6754    1.9769   49.9698 H       1  ZINC001074839487    0.0900
@<TRIPOS>BOND
     1     1     2    1
     2     1    28    1
     3     1    29    1
     4     1    30    1
     5     2     3    1
     6     2    31    1
     7     2    32    1
     8     3     4    1
     9     3    33    1
    10     3    34    1
    11     4     5    1
    12     4    35    1
    13     4    36    1
    14     5     6    2
    15     5     7   am
    16     7     8    1
    17     7    37    1
    18     8     9    1
    19     8    27    1
    20     8    10    1
    21    10    11    1
    22    10    38    1
    23    10    39    1
    24    11    12    1
    25    11    40    1
    26    11    41    1
    27    12    13   am
    28    12    24    1
    29    13    14    2
    30    13    15    1
    31    15    23   ar
    32    15    16   ar
    33    16    17   ar
    34    16    42    1
    35    17    18   ar
    36    17    43    1
    37    18    22   ar
    38    18    19    1
    39    19    20    1
    40    19    44    1
    41    19    45    1
    42    20    21    1
    43    21    22    1
    44    21    46    1
    45    21    47    1
    46    22    23   ar
    47    23    48    1
    48    24    25    1
    49    24    26    1
    50    24    27    1
    51    26    49    1
    52    26    50    1
    53    26    51    1
    54    27    52    1
    55    27    53    1
@<TRIPOS>SUBSTRUCTURE
     1 ZINC001074839487        1 TEMP              0 ****  ****    0 ROOT


##########                                Name:    ZINC000416583757
##########                DOCK_Rotatable_Bonds:                   7
##########                         Heavy_Atoms:                  20
##########                    Molecular_Weight:             380.693
##########                DOCK_Rotatable_Bonds:                   7
##########                       Formal_Charge:         1.04308e-07
##########                     HBond_Acceptors:                   7
##########                        HBond_Donors:                   1
##########                         Heavy_Atoms:                  20
##########                          Grid_Score:          -29.026688
##########                     Grid_vdw_energy:          -27.899323
##########                      Grid_es_energy:           -1.127365
##########           Internal_energy_repulsive:            6.373181

@<TRIPOS>MOLECULE
ZINC000416583757
 35 35 1 0 0
SMALL
USER_CHARGES


@<TRIPOS>ATOM
      1 C1         -1.5249    3.0495   57.0694 C.3     1  ZINC000416583757   -0.1500
      2 C2         -2.2939    3.3822   55.7893 C.3     1  ZINC000416583757   -0.0200
      3 H3         -2.1026    2.6135   55.0404 H       1  ZINC000416583757    0.1200
      4 C4         -3.7355    3.4338   56.0823 C.1     1  ZINC000416583757    0.2100
      5 N5         -4.8480    3.4735   56.3084 N.1     1  ZINC000416583757   -0.4200
      6 C6         -1.8330    4.7400   55.2556 C.3     1  ZINC000416583757    0.1300
      7 N7         -0.7389    4.5436   54.3013 N.am    1  ZINC000416583757   -1.0100
      8 C8          0.6460    4.4890   54.7758 C.3     1  ZINC000416583757    0.0800
      9 S9         -1.0677    4.3837   52.6861 S.o2    1  ZINC000416583757    2.7800
     10 O10        -1.8530    5.5110   52.3230 O.2     1  ZINC000416583757   -0.9700
     11 O11         0.1639    4.0590   52.0562 O.2     1  ZINC000416583757   -0.9700
     12 N12        -2.0449    3.0579   52.5137 N.am    1  ZINC000416583757   -1.1300
     13 C13        -2.5088    2.6580   51.1829 C.3     1  ZINC000416583757    0.1600
     14 C14        -4.0116    2.5461   51.1874 C.ar    1  ZINC000416583757   -0.0800
     15 C15        -4.7866    3.6395   50.8499 C.ar    1  ZINC000416583757   -0.0800
     16 C16        -6.1666    3.5371   50.8534 C.ar    1  ZINC000416583757   -0.0300
     17 Cl17       -7.1401    4.9104   50.4289 Cl      1  ZINC000416583757   -0.0500
     18 C18        -6.7701    2.3404   51.1946 C.ar    1  ZINC000416583757   -0.0700
     19 C19        -5.9938    1.2464   51.5322 C.ar    1  ZINC000416583757   -0.0800
     20 Br20       -6.8181   -0.3903   51.9989 Br      1  ZINC000416583757   -0.0300
     21 C21        -4.6145    1.3483   51.5234 C.ar    1  ZINC000416583757   -0.0700
     22 H22        -1.9364    2.1442   57.5155 H       1  ZINC000416583757    0.0700
     23 H23        -0.4732    2.8914   56.8308 H       1  ZINC000416583757    0.0800
     24 H24        -1.6173    3.8761   57.7739 H       1  ZINC000416583757    0.0700
     25 H25        -2.6656    5.2360   54.7568 H       1  ZINC000416583757    0.0900
     26 H26        -1.4860    5.3572   56.0842 H       1  ZINC000416583757    0.1000
     27 H27         0.9092    3.4576   55.0107 H       1  ZINC000416583757    0.0700
     28 H28         1.3114    4.8659   53.9990 H       1  ZINC000416583757    0.0800
     29 H29         0.7480    5.1029   55.6707 H       1  ZINC000416583757    0.0800
     30 H30        -2.3101    2.5461   53.2938 H       1  ZINC000416583757    0.4200
     31 H31        -2.2023    3.4057   50.4514 H       1  ZINC000416583757    0.0800
     32 H32        -2.0735    1.6937   50.9208 H       1  ZINC000416583757    0.1000
     33 H33        -4.3152    4.5740   50.5839 H       1  ZINC000416583757    0.1500
     34 H34        -7.8471    2.2600   51.1978 H       1  ZINC000416583757    0.1500
     35 H35        -4.0083    0.4941   51.7870 H       1  ZINC000416583757    0.1400
@<TRIPOS>BOND
     1     1     2    1
     2     1    22    1
     3     1    23    1
     4     1    24    1
     5     2     3    1
     6     2     4    1
     7     2     6    1
     8     4     5    3
     9     6     7    1
    10     6    25    1
    11     6    26    1
    12     7     8    1
    13     7     9   am
    14     8    27    1
    15     8    28    1
    16     8    29    1
    17     9    10    2
    18     9    11    2
    19     9    12   am
    20    12    13    1
    21    12    30    1
    22    13    14    1
    23    13    31    1
    24    13    32    1
    25    14    21   ar
    26    14    15   ar
    27    15    16   ar
    28    15    33    1
    29    16    17    1
    30    16    18   ar
    31    18    19   ar
    32    18    34    1
    33    19    20    1
    34    19    21   ar
    35    21    35    1
@<TRIPOS>SUBSTRUCTURE
     1 ZINC000416583757        1 TEMP              0 ****  ****    0 ROOT


##########                                Name:    ZINC000302023461
##########                DOCK_Rotatable_Bonds:                   3
##########                         Heavy_Atoms:                  25
##########                    Molecular_Weight:             356.362
##########                DOCK_Rotatable_Bonds:                   3
##########                       Formal_Charge:        -2.08616e-07
##########                     HBond_Acceptors:                   9
##########                        HBond_Donors:                   1
##########                         Heavy_Atoms:                  25
##########                          Grid_Score:          -29.020163
##########                     Grid_vdw_energy:          -29.191866
##########                      Grid_es_energy:            0.171703
##########           Internal_energy_repulsive:           19.759222

@<TRIPOS>MOLECULE
ZINC000302023461
 37 40 1 0 0
SMALL
USER_CHARGES


@<TRIPOS>ATOM
      1 O1         -9.2401    0.5582   53.6286 O.2     1  ZINC000302023461   -0.1600
      2 N2         -8.2508    0.6657   52.9262 N.pl3   1  ZINC000302023461    0.0200
      3 O3         -7.4042   -0.2100   52.9286 O.2     1  ZINC000302023461   -0.1300
      4 C4         -8.0805    1.8576   52.0650 C.ar    1  ZINC000302023461    0.0000
      5 C5         -9.0396    2.8507   52.0615 C.ar    1  ZINC000302023461   -0.0600
      6 C6         -8.8812    3.9648   51.2572 C.ar    1  ZINC000302023461   -0.0900
      7 C7         -7.7622    4.0885   50.4542 C.ar    1  ZINC000302023461   -0.0800
      8 C8         -6.7986    3.0991   50.4525 C.ar    1  ZINC000302023461   -0.0500
      9 C9         -6.9519    1.9811   51.2631 C.ar    1  ZINC000302023461   -0.1100
     10 S10        -5.7249    0.7165   51.2647 S.3     1  ZINC000302023461    0.1900
     11 C11        -4.2375    1.6078   51.5770 C.2     1  ZINC000302023461    0.2100
     12 N12        -4.0943    2.5647   52.4649 N.2     1  ZINC000302023461   -0.3200
     13 N13        -2.7615    2.9999   52.3867 N.pl3   1  ZINC000302023461   -0.4700
     14 C14        -2.1718    2.2526   51.4264 C.2     1  ZINC000302023461    0.3500
     15 C15        -0.7625    2.3519   50.9895 C.ar    1  ZINC000302023461   -0.0400
     16 C16         0.1685    3.0280   51.7785 C.ar    1  ZINC000302023461   -0.0900
     17 C17         1.4817    3.1207   51.3679 C.ar    1  ZINC000302023461   -0.1100
     18 C18         1.8827    2.5434   50.1704 C.ar    1  ZINC000302023461    0.0800
     19 O19         3.1818    2.6546   49.7808 O.3     1  ZINC000302023461   -0.3000
     20 C20         3.6293    1.7504   48.7651 C.3     1  ZINC000302023461    0.0200
     21 C21         2.5798    1.7267   47.6458 C.3     1  ZINC000302023461    0.0200
     22 O22         1.3371    1.2891   48.2060 O.3     1  ZINC000302023461   -0.3000
     23 C23         0.9592    1.8647   49.3804 C.ar    1  ZINC000302023461    0.0500
     24 C24        -0.3589    1.7648   49.7897 C.ar    1  ZINC000302023461   -0.0500
     25 N25        -3.0734    1.4153   50.9531 N.2     1  ZINC000302023461   -0.5000
     26 H26        -9.9147    2.7573   52.6875 H       1  ZINC000302023461    0.1600
     27 H27        -9.6334    4.7397   51.2560 H       1  ZINC000302023461    0.1500
     28 H28        -7.6417    4.9597   49.8274 H       1  ZINC000302023461    0.1500
     29 H29        -5.9253    3.1960   49.8246 H       1  ZINC000302023461    0.1600
     30 H30        -2.3463    3.6985   52.9164 H       1  ZINC000302023461    0.4400
     31 H31        -0.1392    3.4790   52.7104 H       1  ZINC000302023461    0.1300
     32 H32         2.2010    3.6447   51.9800 H       1  ZINC000302023461    0.1500
     33 H33         4.5850    2.0900   48.3658 H       1  ZINC000302023461    0.1300
     34 H34         3.7405    0.7510   49.1858 H       1  ZINC000302023461    0.0800
     35 H35         2.4632    2.7275   47.2298 H       1  ZINC000302023461    0.0800
     36 H36         2.8932    1.0366   46.8624 H       1  ZINC000302023461    0.1300
     37 H37        -1.0757    1.2363   49.1787 H       1  ZINC000302023461    0.1600
@<TRIPOS>BOND
     1     1     2    2
     2     2     3    2
     3     2     4    1
     4     4     9   ar
     5     4     5   ar
     6     5     6   ar
     7     5    26    1
     8     6     7   ar
     9     6    27    1
    10     7     8   ar
    11     7    28    1
    12     8     9   ar
    13     8    29    1
    14     9    10    1
    15    10    11    1
    16    11    25    1
    17    11    12    2
    18    12    13    1
    19    13    14    1
    20    13    30    1
    21    14    15    1
    22    14    25    2
    23    15    24   ar
    24    15    16   ar
    25    16    17   ar
    26    16    31    1
    27    17    18   ar
    28    17    32    1
    29    18    23   ar
    30    18    19    1
    31    19    20    1
    32    20    21    1
    33    20    33    1
    34    20    34    1
    35    21    22    1
    36    21    35    1
    37    21    36    1
    38    22    23    1
    39    23    24   ar
    40    24    37    1
@<TRIPOS>SUBSTRUCTURE
     1 ZINC000302023461        1 TEMP              0 ****  ****    0 ROOT


##########                                Name:    ZINC000011498449
##########                DOCK_Rotatable_Bonds:                   5
##########                         Heavy_Atoms:                  21
##########                    Molecular_Weight:             331.198
##########                DOCK_Rotatable_Bonds:                   5
##########                       Formal_Charge:         1.30385e-07
##########                     HBond_Acceptors:                   7
##########                        HBond_Donors:                   1
##########                         Heavy_Atoms:                  21
##########                          Grid_Score:          -29.014301
##########                     Grid_vdw_energy:          -27.682888
##########                      Grid_es_energy:           -1.331412
##########           Internal_energy_repulsive:            9.366469

@<TRIPOS>MOLECULE
ZINC000011498449
 37 38 1 0 0
SMALL
USER_CHARGES


@<TRIPOS>ATOM
      1 C1          2.8364    1.5659   49.0666 C.3     1  ZINC000011498449   -0.1500
      2 C2          1.9186    2.1004   50.1679 C.3     1  ZINC000011498449    0.0700
      3 H3          1.9083    1.4015   51.0043 H       1  ZINC000011498449    0.0600
      4 C4          0.4971    2.2604   49.6169 C.3     1  ZINC000011498449    0.0800
      5 N5         -0.3190    2.9475   50.6305 N.am    1  ZINC000011498449   -0.6100
      6 C6         -1.5111    2.4502   51.0149 C.2     1  ZINC000011498449    0.5100
      7 O7         -1.9253    1.4210   50.5250 O.2     1  ZINC000011498449   -0.5300
      8 C8         -2.3295    3.1730   52.0536 C.3     1  ZINC000011498449    0.1000
      9 N9         -3.5039    2.3675   52.3973 N.am    1  ZINC000011498449   -0.7200
     10 C10        -4.6115    2.4301   51.6318 C.2     1  ZINC000011498449    0.5600
     11 O11        -4.6356    3.1538   50.6554 O.2     1  ZINC000011498449   -0.5100
     12 C12        -5.7963    1.6193   51.9795 C.ar    1  ZINC000011498449   -0.1300
     13 C13        -5.9484    0.3368   51.4488 C.ar    1  ZINC000011498449   -0.0600
     14 C14        -7.0561   -0.4155   51.7773 C.ar    1  ZINC000011498449   -0.1100
     15 C15        -8.0179    0.0979   52.6321 C.ar    1  ZINC000011498449    0.0000
     16 Cl16       -9.4091   -0.8566   53.0406 Cl      1  ZINC000011498449   -0.0400
     17 C17        -7.8741    1.3689   53.1623 C.ar    1  ZINC000011498449   -0.1100
     18 C18        -6.7669    2.1304   52.8456 C.ar    1  ZINC000011498449    0.0300
     19 Cl19       -6.5875    3.7237   53.5109 Cl      1  ZINC000011498449   -0.0100
     20 C20         0.2054    4.1933   51.2124 C.3     1  ZINC000011498449    0.0700
     21 C21         1.6410    3.9391   51.6856 C.3     1  ZINC000011498449    0.0500
     22 O22         2.3976    3.3715   50.6136 O.3     1  ZINC000011498449   -0.3700
     23 H23         3.8474    1.4541   49.4586 H       1  ZINC000011498449    0.0700
     24 H24         2.4696    0.5977   48.7261 H       1  ZINC000011498449    0.0800
     25 H25         2.8462    2.2652   48.2306 H       1  ZINC000011498449    0.0700
     26 H26         0.5224    2.8532   48.7025 H       1  ZINC000011498449    0.0800
     27 H27         0.0720    1.2789   49.4070 H       1  ZINC000011498449    0.1000
     28 H28        -1.7247    3.3328   52.9463 H       1  ZINC000011498449    0.1000
     29 H29        -2.6526    4.1354   51.6566 H       1  ZINC000011498449    0.1000
     30 H30        -3.4844    1.7891   53.1758 H       1  ZINC000011498449    0.4100
     31 H31        -5.1999   -0.0651   50.7820 H       1  ZINC000011498449    0.1500
     32 H32        -7.1746   -1.4074   51.3669 H       1  ZINC000011498449    0.1500
     33 H33        -8.6273    1.7636   53.8281 H       1  ZINC000011498449    0.1500
     34 H34         0.2013    4.9807   50.4586 H       1  ZINC000011498449    0.0900
     35 H35        -0.4129    4.4917   52.0590 H       1  ZINC000011498449    0.1000
     36 H36         2.0953    4.8810   51.9929 H       1  ZINC000011498449    0.1100
     37 H37         1.6296    3.2475   52.5281 H       1  ZINC000011498449    0.0600
@<TRIPOS>BOND
     1     1     2    1
     2     1    23    1
     3     1    24    1
     4     1    25    1
     5     2     3    1
     6     2    22    1
     7     2     4    1
     8     4     5    1
     9     4    26    1
    10     4    27    1
    11     5     6   am
    12     5    20    1
    13     6     7    2
    14     6     8    1
    15     8     9    1
    16     8    28    1
    17     8    29    1
    18     9    10   am
    19     9    30    1
    20    10    11    2
    21    10    12    1
    22    12    18   ar
    23    12    13   ar
    24    13    14   ar
    25    13    31    1
    26    14    15   ar
    27    14    32    1
    28    15    16    1
    29    15    17   ar
    30    17    18   ar
    31    17    33    1
    32    18    19    1
    33    20    21    1
    34    20    34    1
    35    20    35    1
    36    21    22    1
    37    21    36    1
    38    21    37    1
@<TRIPOS>SUBSTRUCTURE
     1 ZINC000011498449        1 TEMP              0 ****  ****    0 ROOT


##########                                Name:    ZINC000543020509
##########                DOCK_Rotatable_Bonds:                   5
##########                         Heavy_Atoms:                  26
##########                    Molecular_Weight:              366.81
##########                DOCK_Rotatable_Bonds:                   5
##########                       Formal_Charge:               -0.02
##########                     HBond_Acceptors:                   8
##########                        HBond_Donors:                   1
##########                         Heavy_Atoms:                  26
##########                          Grid_Score:          -29.005831
##########                     Grid_vdw_energy:          -30.091915
##########                      Grid_es_energy:            1.086085
##########           Internal_energy_repulsive:            8.942576

@<TRIPOS>MOLECULE
ZINC000543020509
 41 43 1 0 0
SMALL
USER_CHARGES


@<TRIPOS>ATOM
      1 C1        -12.0118   -0.7652   56.9404 C.3     1  ZINC000543020509    0.0800
      2 N2        -11.0033    0.1821   56.4588 N.pl3   1  ZINC000543020509   -0.6200
      3 C3        -10.5772    1.2946   57.3114 C.3     1  ZINC000543020509    0.0900
      4 C4        -10.4499    0.0250   55.1913 C.ar    1  ZINC000543020509    0.2500
      5 C5        -10.9915   -0.8830   54.2830 C.ar    1  ZINC000543020509   -0.2200
      6 C6        -10.4162   -1.0127   53.0324 C.ar    1  ZINC000543020509    0.1400
      7 N7         -9.3687   -0.2929   52.6902 N.ar    1  ZINC000543020509   -0.5000
      8 C8         -8.8191    0.5846   53.5230 C.ar    1  ZINC000543020509    0.1100
      9 C9         -7.6409    1.3703   53.0885 C.2     1  ZINC000543020509    0.5900
     10 O10        -7.2762    2.3293   53.7398 O.2     1  ZINC000543020509   -0.5000
     11 N11        -6.9733    1.0216   51.9708 N.am    1  ZINC000543020509   -0.6200
     12 C12        -5.8591    1.7629   51.5612 C.2     1  ZINC000543020509    0.3200
     13 N13        -4.6033    1.4153   51.7186 N.2     1  ZINC000543020509   -0.3100
     14 N14        -3.7982    2.4241   51.1741 N.pl3   1  ZINC000543020509   -0.3300
     15 C15        -2.4015    2.4330   51.1413 C.ar    1  ZINC000543020509    0.2200
     16 C16        -1.7265    1.8736   50.0665 C.ar    1  ZINC000543020509   -0.1300
     17 C17        -0.3455    1.8832   50.0352 C.ar    1  ZINC000543020509   -0.0500
     18 C18         0.3753    2.4499   51.0742 C.ar    1  ZINC000543020509   -0.0600
     19 Cl19        2.1105    2.4543   51.0206 Cl      1  ZINC000543020509   -0.0500
     20 C20        -0.2802    3.0113   52.1511 C.ar    1  ZINC000543020509   -0.0400
     21 C21        -1.6759    3.0131   52.1926 C.ar    1  ZINC000543020509   -0.0200
     22 C22        -2.3624    3.5938   53.3070 C.1     1  ZINC000543020509    0.2500
     23 N23        -2.9070    4.0546   54.1911 N.1     1  ZINC000543020509   -0.3800
     24 C24        -4.6156    3.3919   50.6829 C.2     1  ZINC000543020509    0.0700
     25 C25        -5.8918    3.0050   50.9049 C.2     1  ZINC000543020509   -0.2400
     26 C26        -9.3431    0.7763   54.7964 C.ar    1  ZINC000543020509   -0.1800
     27 H27       -13.0046   -0.4114   56.6626 H       1  ZINC000543020509    0.0600
     28 H28       -11.8357   -1.7428   56.4915 H       1  ZINC000543020509    0.0700
     29 H29       -11.9454   -0.8463   58.0254 H       1  ZINC000543020509    0.0700
     30 H30       -11.1158    1.2539   58.2582 H       1  ZINC000543020509    0.0800
     31 H31        -9.5062    1.2190   57.4992 H       1  ZINC000543020509    0.0600
     32 H32       -10.7925    2.2388   56.8112 H       1  ZINC000543020509    0.0600
     33 H33       -11.8507   -1.4790   54.5532 H       1  ZINC000543020509    0.1400
     34 H34       -10.8325   -1.7152   52.3257 H       1  ZINC000543020509    0.1700
     35 H35        -7.2651    0.2568   51.4504 H       1  ZINC000543020509    0.4300
     36 H36        -2.2813    1.4298   49.2532 H       1  ZINC000543020509    0.1500
     37 H37         0.1754    1.4460   49.1962 H       1  ZINC000543020509    0.1500
     38 H38         0.2855    3.4519   52.9587 H       1  ZINC000543020509    0.1500
     39 H39        -4.3020    4.3048   50.1984 H       1  ZINC000543020509    0.1900
     40 H40        -6.7795    3.5563   50.6319 H       1  ZINC000543020509    0.1800
     41 H41        -8.8955    1.4903   55.4719 H       1  ZINC000543020509    0.1500
@<TRIPOS>BOND
     1     1     2    1
     2     1    27    1
     3     1    28    1
     4     1    29    1
     5     2     3    1
     6     2     4    1
     7     3    30    1
     8     3    31    1
     9     3    32    1
    10     4    26   ar
    11     4     5   ar
    12     5     6   ar
    13     5    33    1
    14     6     7   ar
    15     6    34    1
    16     7     8   ar
    17     8     9    1
    18     8    26   ar
    19     9    10    2
    20     9    11   am
    21    11    12    1
    22    11    35    1
    23    12    25    1
    24    12    13    2
    25    13    14    1
    26    14    15    1
    27    14    24    1
    28    15    21   ar
    29    15    16   ar
    30    16    17   ar
    31    16    36    1
    32    17    18   ar
    33    17    37    1
    34    18    19    1
    35    18    20   ar
    36    20    21   ar
    37    20    38    1
    38    21    22    1
    39    22    23    3
    40    24    25    2
    41    24    39    1
    42    25    40    1
    43    26    41    1
@<TRIPOS>SUBSTRUCTURE
     1 ZINC000543020509        1 TEMP              0 ****  ****    0 ROOT


##########                                Name:    ZINC000629379364
##########                DOCK_Rotatable_Bonds:                   5
##########                         Heavy_Atoms:                  23
##########                    Molecular_Weight:             386.261
##########                DOCK_Rotatable_Bonds:                   5
##########                       Formal_Charge:               -0.02
##########                     HBond_Acceptors:                   5
##########                        HBond_Donors:                   1
##########                         Heavy_Atoms:                  23
##########                          Grid_Score:          -28.994123
##########                     Grid_vdw_energy:          -27.334631
##########                      Grid_es_energy:           -1.659492
##########           Internal_energy_repulsive:           26.401367

@<TRIPOS>MOLECULE
ZINC000629379364
 44 46 1 0 0
SMALL
USER_CHARGES


@<TRIPOS>ATOM
      1 O1         -5.0046    5.6372   53.0158 O.co2   1  ZINC000629379364   -0.6800
      2 C2         -5.3515    5.6641   51.8473 C.2     1  ZINC000629379364    0.5000
      3 O3         -5.6990    6.7162   51.3385 O.co2   1  ZINC000629379364   -0.6900
      4 C4         -5.3449    4.3980   51.0300 C.3     1  ZINC000629379364   -0.1600
      5 H5         -5.0903    4.6247   49.9947 H       1  ZINC000629379364    0.0800
      6 C6         -6.7258    3.7224   51.0960 C.3     1  ZINC000629379364   -0.1300
      7 C7         -6.7103    2.3658   50.3978 C.3     1  ZINC000629379364   -0.0100
      8 N8         -5.6507    1.4874   50.9300 N.4     1  ZINC000629379364   -0.3700
      9 H9         -5.6660    0.6011   50.4480 H       1  ZINC000629379364    0.4200
     10 C10        -5.8537    1.2760   52.3694 C.3     1  ZINC000629379364   -0.0200
     11 C11        -6.1992   -0.1923   52.6256 C.3     1  ZINC000629379364    0.0300
     12 O12        -7.4765   -0.4873   52.0568 O.3     1  ZINC000629379364   -0.3200
     13 C13        -8.5703   -0.1677   52.7972 C.ar    1  ZINC000629379364    0.1600
     14 C14        -9.8067   -0.7089   52.4786 C.ar    1  ZINC000629379364   -0.2300
     15 C15       -10.9192   -0.3821   53.2340 C.ar    1  ZINC000629379364    0.1500
     16 F16       -12.1242   -0.9087   52.9245 F       1  ZINC000629379364   -0.1200
     17 C17       -10.7975    0.4844   54.3072 C.ar    1  ZINC000629379364   -0.1600
     18 C18        -9.5645    1.0250   54.6253 C.ar    1  ZINC000629379364   -0.0300
     19 Br19       -9.4017    2.2079   56.0917 Br      1  ZINC000629379364   -0.0100
     20 C20        -8.4502    0.6961   53.8764 C.ar    1  ZINC000629379364   -0.1300
     21 C21        -4.3779    2.1521   50.7015 C.3     1  ZINC000629379364   -0.0100
     22 H22        -4.2913    2.4424   49.6544 H       1  ZINC000629379364    0.1400
     23 C23        -3.1240    1.3884   51.1399 C.3     1  ZINC000629379364   -0.1300
     24 C24        -2.0714    2.5167   51.3149 C.3     1  ZINC000629379364   -0.1200
     25 C25        -2.8670    3.8194   51.5761 C.3     1  ZINC000629379364   -0.1100
     26 C26        -4.3429    3.4129   51.6070 C.3     1  ZINC000629379364   -0.0700
     27 H27        -4.6275    3.1232   52.6185 H       1  ZINC000629379364    0.1000
     28 H28        -7.0062    3.5836   52.1401 H       1  ZINC000629379364    0.0800
     29 H29        -7.4614    4.3648   50.6119 H       1  ZINC000629379364    0.1100
     30 H30        -7.6769    1.8823   50.5398 H       1  ZINC000629379364    0.1200
     31 H31        -6.5438    2.5171   49.3314 H       1  ZINC000629379364    0.1300
     32 H32        -4.9410    1.5336   52.9068 H       1  ZINC000629379364    0.1400
     33 H33        -6.6710    1.9076   52.7177 H       1  ZINC000629379364    0.1700
     34 H34        -5.4418   -0.8289   52.1681 H       1  ZINC000629379364    0.1100
     35 H35        -6.2284   -0.3767   53.6995 H       1  ZINC000629379364    0.0900
     36 H36        -9.9013   -1.3847   51.6414 H       1  ZINC000629379364    0.1500
     37 H37       -11.6662    0.7386   54.8964 H       1  ZINC000629379364    0.1500
     38 H38        -7.4880    1.1184   54.1258 H       1  ZINC000629379364    0.1500
     39 H39        -3.2971    0.8730   52.0846 H       1  ZINC000629379364    0.0800
     40 H40        -2.8109    0.6857   50.3677 H       1  ZINC000629379364    0.0900
     41 H41        -1.4248    2.2966   52.1642 H       1  ZINC000629379364    0.0800
     42 H42        -1.4765    2.6172   50.4072 H       1  ZINC000629379364    0.0800
     43 H43        -2.5667    4.2609   52.5264 H       1  ZINC000629379364    0.0900
     44 H44        -2.7084    4.5279   50.7631 H       1  ZINC000629379364    0.0800
@<TRIPOS>BOND
     1     1     2   ar
     2     2     3   ar
     3     2     4    1
     4     4     5    1
     5     4    26    1
     6     4     6    1
     7     6     7    1
     8     6    28    1
     9     6    29    1
    10     7     8    1
    11     7    30    1
    12     7    31    1
    13     8     9    1
    14     8    10    1
    15     8    21    1
    16    10    11    1
    17    10    32    1
    18    10    33    1
    19    11    12    1
    20    11    34    1
    21    11    35    1
    22    12    13    1
    23    13    20   ar
    24    13    14   ar
    25    14    15   ar
    26    14    36    1
    27    15    16    1
    28    15    17   ar
    29    17    18   ar
    30    17    37    1
    31    18    19    1
    32    18    20   ar
    33    20    38    1
    34    21    22    1
    35    21    26    1
    36    21    23    1
    37    23    24    1
    38    23    39    1
    39    23    40    1
    40    24    25    1
    41    24    41    1
    42    24    42    1
    43    25    26    1
    44    25    43    1
    45    25    44    1
    46    26    27    1
@<TRIPOS>SUBSTRUCTURE
     1 ZINC000629379364        1 TEMP              0 ****  ****    0 ROOT


##########                                Name:    ZINC000611836474
##########                DOCK_Rotatable_Bonds:                   7
##########                         Heavy_Atoms:                  22
##########                    Molecular_Weight:             366.258
##########                DOCK_Rotatable_Bonds:                   7
##########                       Formal_Charge:          -0.0300004
##########                     HBond_Acceptors:                   5
##########                        HBond_Donors:                   1
##########                         Heavy_Atoms:                  22
##########                          Grid_Score:          -28.983540
##########                     Grid_vdw_energy:          -29.294123
##########                      Grid_es_energy:            0.310583
##########           Internal_energy_repulsive:           12.600817

@<TRIPOS>MOLECULE
ZINC000611836474
 42 43 1 0 0
SMALL
USER_CHARGES


@<TRIPOS>ATOM
      1 C1         -1.5353    5.4756   52.5375 C.3     1  ZINC000611836474   -0.1500
      2 C2         -1.1029    4.4465   53.5840 C.3     1  ZINC000611836474   -0.1400
      3 C3         -1.7043    3.0830   53.2373 C.3     1  ZINC000611836474    0.1300
      4 N4         -1.2325    2.6630   51.9155 N.pl3   1  ZINC000611836474   -0.3900
      5 N5          0.0244    2.9398   51.3626 N.2     1  ZINC000611836474   -0.2900
      6 C6          0.0782    2.4021   50.1710 C.2     1  ZINC000611836474    0.0600
      7 C7         -1.1400    1.7642   49.9213 C.2     1  ZINC000611836474   -0.2800
      8 C8         -1.9315    1.9345   51.0154 C.2     1  ZINC000611836474    0.3000
      9 N9         -3.2304    1.4525   51.1760 N.am    1  ZINC000611836474   -0.6500
     10 C10        -4.2754    2.3023   51.1270 C.2     1  ZINC000611836474    0.5200
     11 O11        -4.0864    3.4860   50.9418 O.2     1  ZINC000611836474   -0.4700
     12 C12        -5.6787    1.7817   51.3023 C.3     1  ZINC000611836474    0.0700
     13 H13        -5.7916    0.8485   50.7506 H       1  ZINC000611836474    0.1100
     14 C14        -6.6755    2.8128   50.7695 C.3     1  ZINC000611836474   -0.1800
     15 O15        -5.9305    1.5485   52.6895 O.3     1  ZINC000611836474   -0.2700
     16 C16        -7.1526    1.0543   53.0203 C.ar    1  ZINC000611836474    0.1500
     17 C17        -7.6402   -0.0768   52.3832 C.ar    1  ZINC000611836474   -0.2000
     18 C18        -8.8831   -0.5774   52.7211 C.ar    1  ZINC000611836474   -0.0600
     19 C19        -9.6411    0.0486   53.6931 C.ar    1  ZINC000611836474   -0.1100
     20 C20       -10.9964   -0.4994   54.0589 C.3     1  ZINC000611836474   -0.1100
     21 C21        -9.1576    1.1765   54.3305 C.ar    1  ZINC000611836474   -0.0500
     22 C22        -7.9128    1.6779   54.0005 C.ar    1  ZINC000611836474   -0.1200
     23 Br23       -7.2520    3.2203   54.8723 Br      1  ZINC000611836474   -0.0300
     24 H24        -1.1069    6.4469   52.7846 H       1  ZINC000611836474    0.0600
     25 H25        -1.1843    5.1631   51.5541 H       1  ZINC000611836474    0.0600
     26 H26        -2.6227    5.5497   52.5287 H       1  ZINC000611836474    0.0600
     27 H27        -0.0155    4.3724   53.5929 H       1  ZINC000611836474    0.0800
     28 H28        -1.4538    4.7589   54.5675 H       1  ZINC000611836474    0.0600
     29 H29        -1.3962    2.3499   53.9829 H       1  ZINC000611836474    0.0800
     30 H30        -2.7917    3.1573   53.2284 H       1  ZINC000611836474    0.1000
     31 H31         0.9198    2.4444   49.4956 H       1  ZINC000611836474    0.1900
     32 H32        -1.4048    1.2284   49.0218 H       1  ZINC000611836474    0.1700
     33 H33        -3.3817    0.5057   51.3228 H       1  ZINC000611836474    0.4100
     34 H34        -6.4835    2.9908   49.7113 H       1  ZINC000611836474    0.0800
     35 H35        -7.6905    2.4362   50.8962 H       1  ZINC000611836474    0.0800
     36 H36        -6.5627    3.7461   51.3212 H       1  ZINC000611836474    0.0800
     37 H37        -7.0490   -0.5661   51.6232 H       1  ZINC000611836474    0.1400
     38 H38        -9.2629   -1.4583   52.2251 H       1  ZINC000611836474    0.1300
     39 H39       -10.8895   -1.2236   54.8666 H       1  ZINC000611836474    0.0700
     40 H40       -11.6420    0.3159   54.3850 H       1  ZINC000611836474    0.0700
     41 H41       -11.4378   -0.9871   53.1897 H       1  ZINC000611836474    0.0700
     42 H42        -9.7517    1.6638   55.0895 H       1  ZINC000611836474    0.1400
@<TRIPOS>BOND
     1     1     2    1
     2     1    24    1
     3     1    25    1
     4     1    26    1
     5     2     3    1
     6     2    27    1
     7     2    28    1
     8     3     4    1
     9     3    29    1
    10     3    30    1
    11     4     8    1
    12     4     5    1
    13     5     6    2
    14     6     7    1
    15     6    31    1
    16     7     8    2
    17     7    32    1
    18     8     9    1
    19     9    10   am
    20     9    33    1
    21    10    11    2
    22    10    12    1
    23    12    13    1
    24    12    14    1
    25    12    15    1
    26    14    34    1
    27    14    35    1
    28    14    36    1
    29    15    16    1
    30    16    22   ar
    31    16    17   ar
    32    17    18   ar
    33    17    37    1
    34    18    19   ar
    35    18    38    1
    36    19    20    1
    37    19    21   ar
    38    20    39    1
    39    20    40    1
    40    20    41    1
    41    21    22   ar
    42    21    42    1
    43    22    23    1
@<TRIPOS>SUBSTRUCTURE
     1 ZINC000611836474        1 TEMP              0 ****  ****    0 ROOT


##########                                Name:    ZINC001067560454
##########                DOCK_Rotatable_Bonds:                   4
##########                         Heavy_Atoms:                  25
##########                    Molecular_Weight:             342.444
##########                DOCK_Rotatable_Bonds:                   4
##########                       Formal_Charge:          0.00999971
##########                     HBond_Acceptors:                   7
##########                        HBond_Donors:                   1
##########                         Heavy_Atoms:                  25
##########                          Grid_Score:          -28.964785
##########                     Grid_vdw_energy:          -28.185925
##########                      Grid_es_energy:           -0.778861
##########           Internal_energy_repulsive:           19.443329

@<TRIPOS>MOLECULE
ZINC001067560454
 51 54 1 0 0
SMALL
USER_CHARGES


@<TRIPOS>ATOM
      1 C1         -4.8660    4.2248   50.8743 C.3     1  ZINC001067560454   -0.1500
      2 C2         -5.1154    2.9115   51.6187 C.3     1  ZINC001067560454    0.1000
      3 H3         -4.7082    2.9828   52.6273 H       1  ZINC001067560454    0.0600
      4 C4         -6.6207    2.6461   51.6941 C.3     1  ZINC001067560454   -0.1200
      5 C5         -6.8646    1.3214   52.4221 C.3     1  ZINC001067560454    0.1400
      6 H6         -6.4891    1.3922   53.4430 H       1  ZINC001067560454    0.0900
      7 N7         -8.3009    1.0340   52.4476 N.am    1  ZINC001067560454   -0.7200
      8 C8         -9.0596    1.4813   53.4677 C.2     1  ZINC001067560454    0.5400
      9 O9         -8.5532    2.1206   54.3652 O.2     1  ZINC001067560454   -0.5300
     10 C10       -10.5375    1.1871   53.4930 C.3     1  ZINC001067560454   -0.1100
     11 C11       -10.8666   -0.2410   53.0536 C.3     1  ZINC001067560454   -0.1300
     12 C12       -11.2264    1.6048   54.8029 C.3     1  ZINC001067560454   -0.1200
     13 C13       -11.4569    2.9787   54.1516 C.3     1  ZINC001067560454   -0.1400
     14 C14       -11.3910    2.2587   52.7943 C.3     1  ZINC001067560454   -0.1200
     15 C15        -6.1299    0.1994   51.6834 C.3     1  ZINC001067560454   -0.1200
     16 C16        -4.6388    0.5356   51.6082 C.3     1  ZINC001067560454    0.0600
     17 N17        -4.4585    1.8107   50.9025 N.3     1  ZINC001067560454   -0.4900
     18 C18        -3.1161    2.0811   50.7019 C.ar    1  ZINC001067560454    0.4400
     19 C19        -2.3208    2.5857   51.7445 C.ar    1  ZINC001067560454   -0.0800
     20 N20        -2.5444    2.9156   53.0393 N.2     1  ZINC001067560454   -0.4700
     21 C21        -1.4385    3.3458   53.5738 C.2     1  ZINC001067560454    0.2700
     22 N22        -0.4344    3.3185   52.6523 N.pl3   1  ZINC001067560454   -0.4800
     23 C23         0.9558    3.7247   52.8727 C.3     1  ZINC001067560454    0.0800
     24 C24        -0.9642    2.8402   51.4806 C.ar    1  ZINC001067560454    0.2800
     25 N25        -0.4860    2.5963   50.2649 N.ar    1  ZINC001067560454   -0.5200
     26 C26        -1.2689    2.1229   49.3184 C.ar    1  ZINC001067560454    0.3300
     27 N27        -2.5480    1.8642   49.5201 N.ar    1  ZINC001067560454   -0.5100
     28 H28        -5.2731    4.1537   49.8656 H       1  ZINC001067560454    0.0700
     29 H29        -5.3532    5.0420   51.4060 H       1  ZINC001067560454    0.0700
     30 H30        -3.7939    4.4142   50.8208 H       1  ZINC001067560454    0.0500
     31 H31        -7.1060    3.4557   52.2393 H       1  ZINC001067560454    0.0800
     32 H32        -7.0310    2.5883   50.6860 H       1  ZINC001067560454    0.0800
     33 H33        -8.7057    0.5216   51.7303 H       1  ZINC001067560454    0.4000
     34 H34       -10.2446   -0.9440   53.6076 H       1  ZINC001067560454    0.0600
     35 H35       -11.9175   -0.4496   53.2538 H       1  ZINC001067560454    0.0700
     36 H36       -10.6722   -0.3467   51.9863 H       1  ZINC001067560454    0.0600
     37 H37       -12.1470    1.0577   55.0057 H       1  ZINC001067560454    0.0900
     38 H38       -10.5533    1.6351   55.6597 H       1  ZINC001067560454    0.0700
     39 H39       -12.4345    3.4076   54.3713 H       1  ZINC001067560454    0.0700
     40 H40       -10.6394    3.6813   54.3134 H       1  ZINC001067560454    0.0800
     41 H41       -10.8508    2.8170   52.0297 H       1  ZINC001067560454    0.0800
     42 H42       -12.3566    1.8904   52.4480 H       1  ZINC001067560454    0.0900
     43 H43        -6.2645   -0.7393   52.2209 H       1  ZINC001067560454    0.0800
     44 H44        -6.5324    0.1030   50.6750 H       1  ZINC001067560454    0.0800
     45 H45        -4.2339    0.6183   52.6169 H       1  ZINC001067560454    0.0700
     46 H46        -4.1149   -0.2544   51.0703 H       1  ZINC001067560454    0.0800
     47 H47        -1.3322    3.6762   54.5965 H       1  ZINC001067560454    0.2300
     48 H48         1.5356    2.8666   53.2126 H       1  ZINC001067560454    0.0800
     49 H49         1.3765    4.1013   51.9404 H       1  ZINC001067560454    0.0900
     50 H50         0.9896    4.5087   53.6294 H       1  ZINC001067560454    0.0900
     51 H51        -0.8486    1.9357   48.3414 H       1  ZINC001067560454    0.2100
@<TRIPOS>BOND
     1     1     2    1
     2     1    28    1
     3     1    29    1
     4     1    30    1
     5     2     3    1
     6     2    17    1
     7     2     4    1
     8     4     5    1
     9     4    31    1
    10     4    32    1
    11     5     6    1
    12     5     7    1
    13     5    15    1
    14     7     8   am
    15     7    33    1
    16     8     9    2
    17     8    10    1
    18    10    14    1
    19    10    11    1
    20    10    12    1
    21    11    34    1
    22    11    35    1
    23    11    36    1
    24    12    13    1
    25    12    37    1
    26    12    38    1
    27    13    14    1
    28    13    39    1
    29    13    40    1
    30    14    41    1
    31    14    42    1
    32    15    16    1
    33    15    43    1
    34    15    44    1
    35    16    17    1
    36    16    45    1
    37    16    46    1
    38    17    18    1
    39    18    27   ar
    40    18    19   ar
    41    19    24   ar
    42    19    20    1
    43    20    21    2
    44    21    22    1
    45    21    47    1
    46    22    23    1
    47    22    24    1
    48    23    48    1
    49    23    49    1
    50    23    50    1
    51    24    25   ar
    52    25    26   ar
    53    26    27   ar
    54    26    51    1
@<TRIPOS>SUBSTRUCTURE
     1 ZINC001067560454        1 TEMP              0 ****  ****    0 ROOT


##########                                Name:    ZINC000518242403
##########                DOCK_Rotatable_Bonds:                   6
##########                         Heavy_Atoms:                  27
##########                    Molecular_Weight:             370.405
##########                DOCK_Rotatable_Bonds:                   6
##########                       Formal_Charge:          -0.0200004
##########                     HBond_Acceptors:                   7
##########                        HBond_Donors:                   1
##########                         Heavy_Atoms:                  27
##########                          Grid_Score:          -28.955025
##########                     Grid_vdw_energy:          -29.486399
##########                      Grid_es_energy:            0.531375
##########           Internal_energy_repulsive:           17.415619

@<TRIPOS>MOLECULE
ZINC000518242403
 49 52 1 0 0
SMALL
USER_CHARGES


@<TRIPOS>ATOM
      1 C1         -6.7817    3.7007   50.4008 C.3     1  ZINC000518242403   -0.1800
      2 C2         -6.6828    3.1345   51.8187 C.3     1  ZINC000518242403    0.1000
      3 N3         -5.9987    1.8396   51.7808 N.am    1  ZINC000518242403   -0.6200
      4 C4         -6.7784    0.5994   51.7614 C.3     1  ZINC000518242403    0.1500
      5 C5         -8.0772    0.8013   52.5444 C.3     1  ZINC000518242403    0.0300
      6 H6         -8.7299    1.4864   52.0034 H       1  ZINC000518242403    0.0900
      7 C7         -8.7842   -0.5481   52.7308 C.3     1  ZINC000518242403    0.0300
      8 O8         -9.9855   -0.3255   53.4772 O.3     1  ZINC000518242403   -0.3000
      9 C9         -9.8818    0.4630   54.5817 C.ar    1  ZINC000518242403    0.0500
     10 C10       -10.8862    0.4314   55.5373 C.ar    1  ZINC000518242403   -0.1100
     11 C11       -10.7965    1.2290   56.6629 C.ar    1  ZINC000518242403   -0.1200
     12 C12        -9.7061    2.0597   56.8391 C.ar    1  ZINC000518242403   -0.1200
     13 C13        -8.7005    2.0948   55.8910 C.ar    1  ZINC000518242403   -0.1100
     14 C14        -8.7837    1.2966   54.7602 C.ar    1  ZINC000518242403    0.0500
     15 O15        -7.7822    1.3367   53.8392 O.3     1  ZINC000518242403   -0.3000
     16 C16        -4.6520    1.7892   51.7636 C.2     1  ZINC000518242403    0.7100
     17 O17        -4.0841    0.7145   51.7306 O.2     1  ZINC000518242403   -0.5700
     18 N18        -3.9347    2.9300   51.7831 N.am    1  ZINC000518242403   -0.6800
     19 C19        -2.5344    2.8776   51.7653 C.ar    1  ZINC000518242403    0.1700
     20 C20        -1.8724    2.3872   50.6483 C.ar    1  ZINC000518242403   -0.1000
     21 C21        -0.4884    2.3360   50.6311 C.ar    1  ZINC000518242403    0.0500
     22 C22         0.2363    2.7772   51.7355 C.ar    1  ZINC000518242403    0.0200
     23 C23        -0.4284    3.2654   52.8488 C.ar    1  ZINC000518242403   -0.0800
     24 C24        -1.8090    3.3216   52.8627 C.ar    1  ZINC000518242403   -0.1000
     25 C25        -2.5286    3.8532   54.0755 C.3     1  ZINC000518242403   -0.1100
     26 O26         1.5680    2.6247   51.4723 O.3     1  ZINC000518242403   -0.3100
     27 C27         1.6380    1.7091   50.3633 C.3     1  ZINC000518242403    0.2100
     28 O28         0.3883    1.9076   49.6765 O.3     1  ZINC000518242403   -0.3100
     29 H29        -5.7801    3.8307   49.9908 H       1  ZINC000518242403    0.0600
     30 H30        -7.3447    3.0106   49.7724 H       1  ZINC000518242403    0.0600
     31 H31        -7.2906    4.6642   50.4290 H       1  ZINC000518242403    0.0700
     32 H32        -6.1197    3.8247   52.4470 H       1  ZINC000518242403    0.1000
     33 H33        -7.6843    3.0045   52.2287 H       1  ZINC000518242403    0.0700
     34 H34        -7.0132    0.3339   50.7306 H       1  ZINC000518242403    0.1100
     35 H35        -6.1985   -0.2015   52.2199 H       1  ZINC000518242403    0.0900
     36 H36        -9.0296   -0.9720   51.7571 H       1  ZINC000518242403    0.1300
     37 H37        -8.1337   -1.2315   53.2765 H       1  ZINC000518242403    0.0800
     38 H38       -11.7394   -0.2167   55.4019 H       1  ZINC000518242403    0.1300
     39 H39       -11.5797    1.2027   57.4060 H       1  ZINC000518242403    0.1300
     40 H40        -9.6395    2.6825   57.7187 H       1  ZINC000518242403    0.1300
     41 H41        -7.8496    2.7448   56.0310 H       1  ZINC000518242403    0.1300
     42 H42        -4.3876    3.7874   51.8095 H       1  ZINC000518242403    0.4100
     43 H43        -2.4363    2.0453   49.7931 H       1  ZINC000518242403    0.1500
     44 H44         0.1336    3.6075   53.7052 H       1  ZINC000518242403    0.1400
     45 H45        -2.6675    4.9294   53.9727 H       1  ZINC000518242403    0.0800
     46 H46        -3.5008    3.3681   54.1628 H       1  ZINC000518242403    0.0700
     47 H47        -1.9380    3.6466   54.9679 H       1  ZINC000518242403    0.0800
     48 H48         2.4763    1.9586   49.7129 H       1  ZINC000518242403    0.1300
     49 H49         1.7206    0.6821   50.7192 H       1  ZINC000518242403    0.0900
@<TRIPOS>BOND
     1     1     2    1
     2     1    29    1
     3     1    30    1
     4     1    31    1
     5     2     3    1
     6     2    32    1
     7     2    33    1
     8     3     4    1
     9     3    16   am
    10     4     5    1
    11     4    34    1
    12     4    35    1
    13     5     6    1
    14     5    15    1
    15     5     7    1
    16     7     8    1
    17     7    36    1
    18     7    37    1
    19     8     9    1
    20     9    14   ar
    21     9    10   ar
    22    10    11   ar
    23    10    38    1
    24    11    12   ar
    25    11    39    1
    26    12    13   ar
    27    12    40    1
    28    13    14   ar
    29    13    41    1
    30    14    15    1
    31    16    17    2
    32    16    18   am
    33    18    19    1
    34    18    42    1
    35    19    24   ar
    36    19    20   ar
    37    20    21   ar
    38    20    43    1
    39    21    28    1
    40    21    22   ar
    41    22    23   ar
    42    22    26    1
    43    23    24   ar
    44    23    44    1
    45    24    25    1
    46    25    45    1
    47    25    46    1
    48    25    47    1
    49    26    27    1
    50    27    28    1
    51    27    48    1
    52    27    49    1
@<TRIPOS>SUBSTRUCTURE
     1 ZINC000518242403        1 TEMP              0 ****  ****    0 ROOT


##########                                Name:    ZINC000053543817
##########                DOCK_Rotatable_Bonds:                   7
##########                         Heavy_Atoms:                  25
##########                    Molecular_Weight:             350.458
##########                DOCK_Rotatable_Bonds:                   7
##########                       Formal_Charge:           0.0199998
##########                     HBond_Acceptors:                   6
##########                        HBond_Donors:                   2
##########                         Heavy_Atoms:                  25
##########                          Grid_Score:          -28.943123
##########                     Grid_vdw_energy:          -27.231524
##########                      Grid_es_energy:           -1.711599
##########           Internal_energy_repulsive:           34.061817

@<TRIPOS>MOLECULE
ZINC000053543817
 55 56 1 0 0
SMALL
USER_CHARGES


@<TRIPOS>ATOM
      1 C1         -1.7555    1.8571   49.7526 C.3     1  ZINC000053543817   -0.0700
      2 C2         -3.0438    2.3342   50.3721 C.2     1  ZINC000053543817   -0.0200
      3 C3         -3.1529    3.0574   51.5041 C.2     1  ZINC000053543817   -0.1800
      4 C4         -4.5266    3.2787   51.7097 C.2     1  ZINC000053543817   -0.1900
      5 C5         -5.1825    2.6810   50.6939 C.2     1  ZINC000053543817    0.0000
      6 C6         -6.6842    2.6868   50.5423 C.3     1  ZINC000053543817   -0.0300
      7 C7         -7.2578    3.7891   51.4407 C.3     1  ZINC000053543817   -0.0500
      8 C8         -6.8860    5.1584   50.8681 C.3     1  ZINC000053543817   -0.1500
      9 C9         -8.7810    3.6575   51.4994 C.3     1  ZINC000053543817   -0.1400
     10 C10        -6.6796    3.6523   52.8520 C.3     1  ZINC000053543817   -0.1200
     11 C11        -5.1928    4.0301   52.8326 C.3     1  ZINC000053543817    0.2200
     12 H12        -5.0888    5.1028   52.6695 H       1  ZINC000053543817    0.1000
     13 N13        -4.5737    3.6628   54.1084 N.am    1  ZINC000053543817   -0.7100
     14 C14        -4.4955    4.5671   55.1047 C.2     1  ZINC000053543817    0.5100
     15 O15        -4.9365    5.6855   54.9444 O.2     1  ZINC000053543817   -0.5300
     16 C16        -3.8602    4.1886   56.4178 C.3     1  ZINC000053543817    0.1400
     17 H17        -3.9086    5.0353   57.1023 H       1  ZINC000053543817    0.1200
     18 C18        -2.3978    3.8042   56.1847 C.3     1  ZINC000053543817   -0.1600
     19 N19        -4.5779    3.0504   56.9973 N.am    1  ZINC000053543817   -0.7000
     20 C20        -5.7713    3.2397   57.5946 C.2     1  ZINC000053543817    0.6600
     21 O21        -6.2511    4.3545   57.6537 O.2     1  ZINC000053543817   -0.5700
     22 O22        -6.4316    2.1935   58.1257 O.3     1  ZINC000053543817   -0.3600
     23 C23        -7.7371    2.4617   58.7019 C.3     1  ZINC000053543817    0.1400
     24 C24        -8.3450    1.1558   59.2175 C.3     1  ZINC000053543817   -0.1800
     25 C25        -7.5898    3.4487   59.8616 C.3     1  ZINC000053543817   -0.1400
     26 C26        -8.6523    3.0633   57.6334 C.3     1  ZINC000053543817   -0.1800
     27 O27        -4.2785    2.1150   49.8854 O.3     1  ZINC000053543817   -0.1700
     28 H28        -1.9747    1.3011   48.8411 H       1  ZINC000053543817    0.0800
     29 H29        -1.1280    2.7154   49.5126 H       1  ZINC000053543817    0.0800
     30 H30        -1.2320    1.2096   50.4561 H       1  ZINC000053543817    0.0800
     31 H31        -2.3432    3.3998   52.1314 H       1  ZINC000053543817    0.1400
     32 H32        -6.9467    2.8871   49.5035 H       1  ZINC000053543817    0.0900
     33 H33        -7.0868    1.7204   50.8455 H       1  ZINC000053543817    0.0900
     34 H34        -7.2987    5.2564   49.8641 H       1  ZINC000053543817    0.0600
     35 H35        -7.2938    5.9420   51.5067 H       1  ZINC000053543817    0.0600
     36 H36        -5.8010    5.2520   50.8258 H       1  ZINC000053543817    0.0600
     37 H37        -9.0461    2.6819   51.9067 H       1  ZINC000053543817    0.0600
     38 H38        -9.1891    4.4410   52.1380 H       1  ZINC000053543817    0.0600
     39 H39        -9.1931    3.7561   50.4950 H       1  ZINC000053543817    0.0600
     40 H40        -7.2147    4.3170   53.5301 H       1  ZINC000053543817    0.0800
     41 H41        -6.7887    2.6221   53.1911 H       1  ZINC000053543817    0.0700
     42 H42        -4.2200    2.7686   54.2362 H       1  ZINC000053543817    0.4000
     43 H43        -1.8638    4.6509   55.7534 H       1  ZINC000053543817    0.0800
     44 H44        -1.9383    3.5303   57.1344 H       1  ZINC000053543817    0.0800
     45 H45        -2.3495    2.9573   55.5001 H       1  ZINC000053543817    0.0700
     46 H46        -4.1944    2.1607   56.9511 H       1  ZINC000053543817    0.4200
     47 H47        -7.6931    0.7273   59.9788 H       1  ZINC000053543817    0.0600
     48 H48        -9.3252    1.3571   59.6500 H       1  ZINC000053543817    0.0700
     49 H49        -8.4500    0.4527   58.3912 H       1  ZINC000053543817    0.0900
     50 H50        -7.1568    4.3790   59.4942 H       1  ZINC000053543817    0.0700
     51 H51        -8.5700    3.6499   60.2941 H       1  ZINC000053543817    0.0800
     52 H52        -6.9379    3.0201   60.6228 H       1  ZINC000053543817    0.0700
     53 H53        -8.7572    2.3601   56.8071 H       1  ZINC000053543817    0.0900
     54 H54        -9.6323    3.2646   58.0658 H       1  ZINC000053543817    0.0700
     55 H55        -8.2192    3.9936   57.2660 H       1  ZINC000053543817    0.0600
@<TRIPOS>BOND
     1     1     2    1
     2     1    28    1
     3     1    29    1
     4     1    30    1
     5     2    27    1
     6     2     3    2
     7     3     4    1
     8     3    31    1
     9     4    11    1
    10     4     5    2
    11     5     6    1
    12     5    27    1
    13     6     7    1
    14     6    32    1
    15     6    33    1
    16     7     8    1
    17     7     9    1
    18     7    10    1
    19     8    34    1
    20     8    35    1
    21     8    36    1
    22     9    37    1
    23     9    38    1
    24     9    39    1
    25    10    11    1
    26    10    40    1
    27    10    41    1
    28    11    12    1
    29    11    13    1
    30    13    14   am
    31    13    42    1
    32    14    15    2
    33    14    16    1
    34    16    17    1
    35    16    18    1
    36    16    19    1
    37    18    43    1
    38    18    44    1
    39    18    45    1
    40    19    20   am
    41    19    46    1
    42    20    21    2
    43    20    22    1
    44    22    23    1
    45    23    24    1
    46    23    25    1
    47    23    26    1
    48    24    47    1
    49    24    48    1
    50    24    49    1
    51    25    50    1
    52    25    51    1
    53    25    52    1
    54    26    53    1
    55    26    54    1
    56    26    55    1
@<TRIPOS>SUBSTRUCTURE
     1 ZINC000053543817        1 TEMP              0 ****  ****    0 ROOT


##########                                Name:    ZINC000898967786
##########                DOCK_Rotatable_Bonds:                   5
##########                         Heavy_Atoms:                  25
##########                    Molecular_Weight:             356.448
##########                DOCK_Rotatable_Bonds:                   5
##########                       Formal_Charge:        -2.38419e-07
##########                     HBond_Acceptors:                   7
##########                        HBond_Donors:                   1
##########                         Heavy_Atoms:                  25
##########                          Grid_Score:          -28.926126
##########                     Grid_vdw_energy:          -28.656321
##########                      Grid_es_energy:           -0.269805
##########           Internal_energy_repulsive:           10.698331

@<TRIPOS>MOLECULE
ZINC000898967786
 45 48 1 0 0
SMALL
USER_CHARGES


@<TRIPOS>ATOM
      1 C1        -11.0295   -0.7541   53.5695 C.3     1  ZINC000898967786   -0.0800
      2 C2         -9.6430   -0.2958   53.1970 C.2     1  ZINC000898967786    0.0900
      3 C3         -9.0893    0.8909   53.5295 C.2     1  ZINC000898967786   -0.1000
      4 C4         -9.7397    1.9876   54.3327 C.3     1  ZINC000898967786    0.2200
      5 N5        -10.2759    1.4297   55.5767 N.am    1  ZINC000898967786   -0.7400
      6 C6         -9.5027    1.3756   56.6793 C.2     1  ZINC000898967786    0.7100
      7 O7         -8.3603    1.7900   56.6416 O.2     1  ZINC000898967786   -0.5800
      8 N8         -9.9960    0.8623   57.8237 N.am    1  ZINC000898967786   -0.6300
      9 C9         -9.1709    0.7929   59.0402 C.3     1  ZINC000898967786    0.0900
     10 C10        -9.2463   -0.6342   59.5947 C.3     1  ZINC000898967786    0.0500
     11 O11       -10.6177   -1.0129   59.7352 O.3     1  ZINC000898967786   -0.3700
     12 C12       -11.3434   -1.0507   58.5041 C.3     1  ZINC000898967786    0.1400
     13 H13       -10.8529   -1.7364   57.8132 H       1  ZINC000898967786    0.0700
     14 C14       -12.7517   -1.5199   58.7641 C.2     1  ZINC000898967786   -0.1100
     15 C15       -13.4377   -2.2523   57.8853 C.2     1  ZINC000898967786   -0.1800
     16 S16       -15.0342   -2.6075   58.5323 S.3     1  ZINC000898967786    0.1100
     17 C17       -14.6695   -1.7149   60.0033 C.2     1  ZINC000898967786   -0.2100
     18 C18       -13.4294   -1.2283   59.9354 C.2     1  ZINC000898967786   -0.1300
     19 C19       -11.3774    0.3603   57.8953 C.3     1  ZINC000898967786    0.0900
     20 N20        -7.8274    0.9104   53.0009 N.pl3   1  ZINC000898967786   -0.3500
     21 C21        -6.8315    1.8433   53.0228 C.2     1  ZINC000898967786    0.0600
     22 C22        -5.6543    1.6064   52.4070 C.2     1  ZINC000898967786   -0.1400
     23 C23        -5.4385    0.3928   51.7332 C.2     1  ZINC000898967786   -0.1000
     24 C24        -6.4227   -0.5456   51.7036 C.2     1  ZINC000898967786   -0.0800
     25 C25        -7.6463   -0.2834   52.3519 C.2     1  ZINC000898967786    0.2400
     26 N26        -8.7549   -0.9971   52.4886 N.2     1  ZINC000898967786   -0.4900
     27 H27       -10.9952   -1.2748   54.5265 H       1  ZINC000898967786    0.0800
     28 H28       -11.6886    0.1103   53.6495 H       1  ZINC000898967786    0.0700
     29 H29       -11.4074   -1.4294   52.8018 H       1  ZINC000898967786    0.0800
     30 H30        -9.0006    2.7538   54.5670 H       1  ZINC000898967786    0.1000
     31 H31       -10.5505    2.4300   53.7538 H       1  ZINC000898967786    0.0700
     32 H32       -11.1873    1.0990   55.6067 H       1  ZINC000898967786    0.4000
     33 H33        -8.1371    1.0382   58.7972 H       1  ZINC000898967786    0.1100
     34 H34        -9.5508    1.4955   59.7820 H       1  ZINC000898967786    0.0800
     35 H35        -8.7482   -1.3185   58.9078 H       1  ZINC000898967786    0.0600
     36 H36        -8.7563   -0.6732   60.5677 H       1  ZINC000898967786    0.1100
     37 H37       -13.0694   -2.5772   56.9235 H       1  ZINC000898967786    0.1700
     38 H38       -15.3446   -1.5848   60.8362 H       1  ZINC000898967786    0.1700
     39 H39       -12.9902   -0.6442   60.7305 H       1  ZINC000898967786    0.1400
     40 H40       -11.9801    1.0166   58.5230 H       1  ZINC000898967786    0.0800
     41 H41       -11.8031    0.3175   56.8928 H       1  ZINC000898967786    0.0900
     42 H42        -6.9871    2.7799   53.5375 H       1  ZINC000898967786    0.1600
     43 H43        -4.8745    2.3533   52.4321 H       1  ZINC000898967786    0.1500
     44 H44        -4.4957    0.2060   51.2405 H       1  ZINC000898967786    0.1500
     45 H45        -6.2681   -1.4821   51.1883 H       1  ZINC000898967786    0.1500
@<TRIPOS>BOND
     1     1     2    1
     2     1    27    1
     3     1    28    1
     4     1    29    1
     5     2    26    1
     6     2     3    2
     7     3     4    1
     8     3    20    1
     9     4     5    1
    10     4    30    1
    11     4    31    1
    12     5     6   am
    13     5    32    1
    14     6     7    2
    15     6     8   am
    16     8    19    1
    17     8     9    1
    18     9    10    1
    19     9    33    1
    20     9    34    1
    21    10    11    1
    22    10    35    1
    23    10    36    1
    24    11    12    1
    25    12    13    1
    26    12    14    1
    27    12    19    1
    28    14    18    1
    29    14    15    2
    30    15    16    1
    31    15    37    1
    32    16    17    1
    33    17    18    2
    34    17    38    1
    35    18    39    1
    36    19    40    1
    37    19    41    1
    38    20    25    1
    39    20    21    1
    40    21    22    2
    41    21    42    1
    42    22    23    1
    43    22    43    1
    44    23    24    2
    45    23    44    1
    46    24    25    1
    47    24    45    1
    48    25    26    2
@<TRIPOS>SUBSTRUCTURE
     1 ZINC000898967786        1 TEMP              0 ****  ****    0 ROOT


##########                                Name:    ZINC000863216249
##########                DOCK_Rotatable_Bonds:                   5
##########                         Heavy_Atoms:                  23
##########                    Molecular_Weight:             396.351
##########                DOCK_Rotatable_Bonds:                   5
##########                       Formal_Charge:         -0.00999944
##########                     HBond_Acceptors:                   5
##########                        HBond_Donors:                   1
##########                         Heavy_Atoms:                  23
##########                          Grid_Score:          -28.901047
##########                     Grid_vdw_energy:          -28.666569
##########                      Grid_es_energy:           -0.234478
##########           Internal_energy_repulsive:           22.487896

@<TRIPOS>MOLECULE
ZINC000863216249
 45 48 1 0 0
SMALL
USER_CHARGES


@<TRIPOS>ATOM
      1 S1         -0.3043    1.9413   50.0726 S.2     1  ZINC000863216249   -0.5900
      2 C2         -1.1907    2.5715   51.3946 C.2     1  ZINC000863216249    0.5600
      3 N3         -2.5336    2.4601   51.4200 N.am    1  ZINC000863216249   -0.6800
      4 C4         -3.2353    1.8050   50.3134 C.3     1  ZINC000863216249    0.1200
      5 C5         -4.6905    2.2764   50.2818 C.3     1  ZINC000863216249    0.0400
      6 N6         -5.4068    1.7321   51.4431 N.3     1  ZINC000863216249   -0.5300
      7 C7         -5.7898    0.3309   51.2167 C.3     1  ZINC000863216249    0.0000
      8 C8         -6.4789   -0.2133   52.4708 C.3     1  ZINC000863216249    0.0600
      9 O9         -7.6040    0.6113   52.7864 O.3     1  ZINC000863216249   -0.3800
     10 C10        -7.2670    1.9825   53.0137 C.3     1  ZINC000863216249    0.0600
     11 C11        -6.5859    2.5489   51.7650 C.3     1  ZINC000863216249    0.0200
     12 N12        -0.5451    3.1743   52.4128 N.am    1  ZINC000863216249   -0.5100
     13 C13         0.9084    3.3549   52.4979 C.3     1  ZINC000863216249    0.1200
     14 C14         1.1378    4.0849   53.8251 C.3     1  ZINC000863216249   -0.1100
     15 C15         2.3528    3.7927   54.6969 C.3     1  ZINC000863216249   -0.1500
     16 C16         2.2273    5.1390   53.9782 C.3     1  ZINC000863216249   -0.1500
     17 C17        -0.2356    4.2723   54.4160 C.ar    1  ZINC000863216249   -0.0700
     18 C18        -0.6503    4.8623   55.5944 C.ar    1  ZINC000863216249   -0.0800
     19 C19        -1.9943    4.9077   55.9146 C.ar    1  ZINC000863216249   -0.1000
     20 C20        -2.9263    4.3602   55.0511 C.ar    1  ZINC000863216249   -0.0700
     21 Br21       -4.7654    4.4215   55.4865 Br      1  ZINC000863216249   -0.0400
     22 C22        -2.5175    3.7698   53.8731 C.ar    1  ZINC000863216249   -0.0900
     23 C23        -1.1630    3.7247   53.5404 C.ar    1  ZINC000863216249    0.1400
     24 H24        -3.0355    2.8138   52.1710 H       1  ZINC000863216249    0.4000
     25 H25        -2.7495    2.0621   49.3721 H       1  ZINC000863216249    0.0900
     26 H26        -3.2064    0.7244   50.4538 H       1  ZINC000863216249    0.1000
     27 H27        -4.7203    3.3655   50.3143 H       1  ZINC000863216249    0.0900
     28 H28        -5.1658    1.9271   49.3653 H       1  ZINC000863216249    0.0400
     29 H29        -6.4749    0.2731   50.3709 H       1  ZINC000863216249    0.0500
     30 H30        -4.8988   -0.2603   51.0053 H       1  ZINC000863216249    0.1000
     31 H31        -6.8154   -1.2336   52.2874 H       1  ZINC000863216249    0.1000
     32 H32        -5.7766   -0.2053   53.3044 H       1  ZINC000863216249    0.0600
     33 H33        -8.1737    2.5502   53.2230 H       1  ZINC000863216249    0.1000
     34 H34        -6.5877    2.0543   53.8631 H       1  ZINC000863216249    0.0600
     35 H35        -6.2763    3.5768   51.9540 H       1  ZINC000863216249    0.0900
     36 H36        -7.2838    2.5265   50.9280 H       1  ZINC000863216249    0.0500
     37 H37         1.4109    2.3877   52.5055 H       1  ZINC000863216249    0.0900
     38 H38         1.2644    3.9616   51.6652 H       1  ZINC000863216249    0.0900
     39 H39         2.2069    3.7831   55.7771 H       1  ZINC000863216249    0.1100
     40 H40         3.0882    3.0846   54.3150 H       1  ZINC000863216249    0.1100
     41 H41         2.8801    5.3163   53.1234 H       1  ZINC000863216249    0.1100
     42 H42         1.9989    6.0147   54.5856 H       1  ZINC000863216249    0.1100
     43 H43         0.0781    5.2891   56.2680 H       1  ZINC000863216249    0.1400
     44 H44        -2.3160    5.3691   56.8365 H       1  ZINC000863216249    0.1400
     45 H45        -3.2498    3.3438   53.2031 H       1  ZINC000863216249    0.1900
@<TRIPOS>BOND
     1     1     2    2
     2     2     3   am
     3     2    12   am
     4     3     4    1
     5     3    24    1
     6     4     5    1
     7     4    25    1
     8     4    26    1
     9     5     6    1
    10     5    27    1
    11     5    28    1
    12     6    11    1
    13     6     7    1
    14     7     8    1
    15     7    29    1
    16     7    30    1
    17     8     9    1
    18     8    31    1
    19     8    32    1
    20     9    10    1
    21    10    11    1
    22    10    33    1
    23    10    34    1
    24    11    35    1
    25    11    36    1
    26    12    23    1
    27    12    13    1
    28    13    14    1
    29    13    37    1
    30    13    38    1
    31    14    16    1
    32    14    15    1
    33    14    17    1
    34    15    16    1
    35    15    39    1
    36    15    40    1
    37    16    41    1
    38    16    42    1
    39    17    23   ar
    40    17    18   ar
    41    18    19   ar
    42    18    43    1
    43    19    20   ar
    44    19    44    1
    45    20    21    1
    46    20    22   ar
    47    22    23   ar
    48    22    45    1
@<TRIPOS>SUBSTRUCTURE
     1 ZINC000863216249        1 TEMP              0 ****  ****    0 ROOT


##########                                Name:    ZINC001625935330
##########                DOCK_Rotatable_Bonds:                   5
##########                         Heavy_Atoms:                  25
##########                    Molecular_Weight:             327.385
##########                DOCK_Rotatable_Bonds:                   5
##########                       Formal_Charge:           0.0199995
##########                     HBond_Acceptors:                   4
##########                        HBond_Donors:                   1
##########                         Heavy_Atoms:                  25
##########                          Grid_Score:          -28.859169
##########                     Grid_vdw_energy:          -29.203234
##########                      Grid_es_energy:            0.344065
##########           Internal_energy_repulsive:           12.027556

@<TRIPOS>MOLECULE
ZINC001625935330
 42 44 1 0 0
SMALL
USER_CHARGES


@<TRIPOS>ATOM
      1 C1         -3.6913    4.4836   51.5286 C.3     1  ZINC001625935330   -0.1600
      2 C2         -3.2004    3.1402   52.0722 C.3     1  ZINC001625935330    0.1800
      3 H3         -2.9371    3.2483   53.1244 H       1  ZINC001625935330    0.1000
      4 N4         -4.2624    2.1404   51.9348 N.am    1  ZINC001625935330   -0.7100
      5 C5         -5.2906    2.1254   52.8060 C.2     1  ZINC001625935330    0.5800
      6 O6         -5.3361    2.9401   53.7064 O.2     1  ZINC001625935330   -0.5300
      7 C7         -6.3657    1.1153   52.6661 C.ar    1  ZINC001625935330    0.0800
      8 C8         -7.5638    1.2859   53.3509 C.ar    1  ZINC001625935330   -0.1000
      9 C9         -8.5674    0.3238   53.2071 C.ar    1  ZINC001625935330    0.0000
     10 C10        -9.8627    0.4628   53.9173 C.ar    1  ZINC001625935330   -0.0600
     11 C11       -10.9630   -0.2940   53.5197 C.ar    1  ZINC001625935330   -0.1000
     12 C12       -12.1653   -0.1611   54.1843 C.ar    1  ZINC001625935330   -0.1200
     13 C13       -12.2792    0.7214   55.2433 C.ar    1  ZINC001625935330   -0.1100
     14 C14       -11.1901    1.4754   55.6423 C.ar    1  ZINC001625935330   -0.1200
     15 C15        -9.9816    1.3465   54.9883 C.ar    1  ZINC001625935330   -0.1000
     16 C16        -8.3191   -0.7718   52.3769 C.ar    1  ZINC001625935330   -0.1400
     17 C17        -7.0993   -0.8668   51.7308 C.ar    1  ZINC001625935330    0.1100
     18 N18        -6.1773    0.0590   51.8834 N.ar    1  ZINC001625935330   -0.4600
     19 C19        -1.9887    2.6960   51.2941 C.ar    1  ZINC001625935330   -0.0900
     20 C20        -2.1453    2.0791   50.0658 C.ar    1  ZINC001625935330   -0.0800
     21 C21        -1.0380    1.6681   49.3447 C.ar    1  ZINC001625935330   -0.1100
     22 C22         0.2304    1.8717   49.8467 C.ar    1  ZINC001625935330   -0.0700
     23 C23         0.3957    2.4942   51.0858 C.ar    1  ZINC001625935330   -0.0200
     24 C24         1.7097    2.7090   51.6132 C.1     1  ZINC001625935330    0.2500
     25 N25         2.7520    2.8793   52.0316 N.1     1  ZINC001625935330   -0.4100
     26 C26        -0.7256    2.9107   51.8058 C.ar    1  ZINC001625935330   -0.0600
     27 H27        -2.9012    5.2274   51.6309 H       1  ZINC001625935330    0.0700
     28 H28        -3.9547    4.3754   50.4765 H       1  ZINC001625935330    0.0600
     29 H29        -4.5678    4.8048   52.0914 H       1  ZINC001625935330    0.0700
     30 H30        -4.2257    1.4893   51.2168 H       1  ZINC001625935330    0.4100
     31 H31        -7.7163    2.1476   53.9838 H       1  ZINC001625935330    0.1500
     32 H32       -10.8753   -0.9832   52.6927 H       1  ZINC001625935330    0.1300
     33 H33       -13.0189   -0.7469   53.8768 H       1  ZINC001625935330    0.1300
     34 H34       -13.2220    0.8227   55.7604 H       1  ZINC001625935330    0.1300
     35 H35       -11.2847    2.1631   56.4696 H       1  ZINC001625935330    0.1300
     36 H36        -9.1319    1.9353   55.3008 H       1  ZINC001625935330    0.1300
     37 H37        -9.0703   -1.5359   52.2412 H       1  ZINC001625935330    0.1400
     38 H38        -6.9026   -1.7122   51.0881 H       1  ZINC001625935330    0.1700
     39 H39        -3.1362    1.9172   49.6681 H       1  ZINC001625935330    0.1300
     40 H40        -1.1674    1.1864   48.3868 H       1  ZINC001625935330    0.1400
     41 H41         1.0937    1.5501   49.2831 H       1  ZINC001625935330    0.1400
     42 H42        -0.6047    3.3928   52.7647 H       1  ZINC001625935330    0.1400
@<TRIPOS>BOND
     1     1     2    1
     2     1    27    1
     3     1    28    1
     4     1    29    1
     5     2     3    1
     6     2     4    1
     7     2    19    1
     8     4     5   am
     9     4    30    1
    10     5     6    2
    11     5     7    1
    12     7    18   ar
    13     7     8   ar
    14     8     9   ar
    15     8    31    1
    16     9    10    1
    17     9    16   ar
    18    10    15   ar
    19    10    11   ar
    20    11    12   ar
    21    11    32    1
    22    12    13   ar
    23    12    33    1
    24    13    14   ar
    25    13    34    1
    26    14    15   ar
    27    14    35    1
    28    15    36    1
    29    16    17   ar
    30    16    37    1
    31    17    18   ar
    32    17    38    1
    33    19    26   ar
    34    19    20   ar
    35    20    21   ar
    36    20    39    1
    37    21    22   ar
    38    21    40    1
    39    22    23   ar
    40    22    41    1
    41    23    24    1
    42    23    26   ar
    43    24    25    3
    44    26    42    1
@<TRIPOS>SUBSTRUCTURE
     1 ZINC001625935330        1 TEMP              0 ****  ****    0 ROOT


##########                                Name:    ZINC000461678839
##########                DOCK_Rotatable_Bonds:                   6
##########                         Heavy_Atoms:                  28
##########                    Molecular_Weight:             404.939
##########                DOCK_Rotatable_Bonds:                   6
##########                       Formal_Charge:          -0.0200003
##########                     HBond_Acceptors:                   7
##########                        HBond_Donors:                   0
##########                         Heavy_Atoms:                  28
##########                          Grid_Score:          -28.839979
##########                     Grid_vdw_energy:          -26.975510
##########                      Grid_es_energy:           -1.864469
##########           Internal_energy_repulsive:           21.487083

@<TRIPOS>MOLECULE
ZINC000461678839
 57 60 1 0 0
SMALL
USER_CHARGES


@<TRIPOS>ATOM
      1 C1         -8.2095    4.2095   53.0628 C.3     1  ZINC000461678839   -0.1500
      2 C2         -7.3331    3.3791   52.1230 C.3     1  ZINC000461678839   -0.0900
      3 H3         -7.8541    3.2480   51.1745 H       1  ZINC000461678839    0.0700
      4 C4         -7.0860    1.9923   52.7582 C.3     1  ZINC000461678839   -0.1100
      5 C5         -6.6180    1.0430   51.6876 C.3     1  ZINC000461678839   -0.1200
      6 C6         -5.0852    0.9947   51.5570 C.3     1  ZINC000461678839    0.0600
      7 N7         -4.4481    2.3277   51.6346 N.3     1  ZINC000461678839   -0.4600
      8 C8         -3.1197    2.2668   51.2443 C.2     1  ZINC000461678839    0.3700
      9 N9         -2.6655    1.8497   50.0861 N.2     1  ZINC000461678839   -0.3100
     10 N10        -1.3828    1.9297   50.0657 N.2     1  ZINC000461678839   -0.2500
     11 C11        -0.9464    2.3985   51.2003 C.2     1  ZINC000461678839    0.1700
     12 C12         0.4939    2.6416   51.5716 C.3     1  ZINC000461678839    0.1500
     13 O13         1.2528    2.9036   50.3894 O.3     1  ZINC000461678839   -0.3100
     14 C14         2.5609    3.2330   50.5564 C.ar    1  ZINC000461678839    0.1400
     15 C15         3.3545    3.5068   49.4520 C.ar    1  ZINC000461678839   -0.2000
     16 C16         4.6838    3.8413   49.6237 C.ar    1  ZINC000461678839   -0.0700
     17 C17         5.2239    3.9030   50.8961 C.ar    1  ZINC000461678839   -0.0700
     18 Cl18        6.8947    4.3230   51.1092 Cl      1  ZINC000461678839   -0.0700
     19 C19         4.4338    3.6307   51.9989 C.ar    1  ZINC000461678839   -0.0700
     20 C20         3.1027    3.3014   51.8316 C.ar    1  ZINC000461678839   -0.1400
     21 N21        -2.0377    2.6349   51.9896 N.pl3   1  ZINC000461678839   -0.4600
     22 C22        -2.0434    3.1651   53.3553 C.3     1  ZINC000461678839    0.1200
     23 C23        -1.8449    4.6815   53.3145 C.3     1  ZINC000461678839   -0.1400
     24 H24        -0.8743    4.9268   52.8831 H       1  ZINC000461678839    0.0900
     25 C25        -1.9741    5.2833   54.7349 C.3     1  ZINC000461678839   -0.1500
     26 C26        -2.7708    6.5851   54.4648 C.3     1  ZINC000461678839    0.0500
     27 O27        -3.6965    6.2037   53.4246 O.3     1  ZINC000461678839   -0.3700
     28 C28        -2.9768    5.3523   52.5123 C.3     1  ZINC000461678839    0.0400
     29 C29        -5.1557    3.3509   50.9032 C.3     1  ZINC000461678839    0.0700
     30 C30        -6.0827    4.0915   51.8847 C.3     1  ZINC000461678839   -0.1100
     31 H31        -8.4038    5.1831   52.6129 H       1  ZINC000461678839    0.0500
     32 H32        -9.1540    3.6919   53.2309 H       1  ZINC000461678839    0.0500
     33 H33        -7.6950    4.3450   54.0142 H       1  ZINC000461678839    0.0600
     34 H34        -6.3222    2.0758   53.5314 H       1  ZINC000461678839    0.0700
     35 H35        -8.0124    1.6208   53.1960 H       1  ZINC000461678839    0.0700
     36 H36        -6.9822    0.0427   51.9218 H       1  ZINC000461678839    0.0800
     37 H37        -7.0421    1.3540   50.7329 H       1  ZINC000461678839    0.0700
     38 H38        -4.6857    0.3693   52.3554 H       1  ZINC000461678839    0.0700
     39 H39        -4.8299    0.5405   50.5996 H       1  ZINC000461678839    0.0500
     40 H40         0.5567    3.4993   52.2412 H       1  ZINC000461678839    0.0800
     41 H41         0.8937    1.7598   52.0721 H       1  ZINC000461678839    0.1000
     42 H42         2.9335    3.4581   48.4586 H       1  ZINC000461678839    0.1400
     43 H43         5.3020    4.0545   48.7641 H       1  ZINC000461678839    0.1400
     44 H44         4.8569    3.6797   52.9913 H       1  ZINC000461678839    0.1400
     45 H45         2.4862    3.0890   52.6926 H       1  ZINC000461678839    0.1400
     46 H46        -2.9975    2.9361   53.8299 H       1  ZINC000461678839    0.1100
     47 H47        -1.2349    2.7080   53.9258 H       1  ZINC000461678839    0.1000
     48 H48        -2.5317    4.6151   55.3912 H       1  ZINC000461678839    0.0800
     49 H49        -0.9929    5.5076   55.1532 H       1  ZINC000461678839    0.0900
     50 H50        -3.3075    6.8994   55.3600 H       1  ZINC000461678839    0.1000
     51 H51        -2.1068    7.3763   54.1165 H       1  ZINC000461678839    0.0600
     52 H52        -2.5576    5.9482   51.7016 H       1  ZINC000461678839    0.0500
     53 H53        -3.6456    4.5921   52.1088 H       1  ZINC000461678839    0.1100
     54 H54        -4.4427    4.0525   50.4703 H       1  ZINC000461678839    0.0900
     55 H55        -5.7484    2.8930   50.1113 H       1  ZINC000461678839    0.0600
     56 H56        -6.3123    5.0760   51.4772 H       1  ZINC000461678839    0.0700
     57 H57        -5.5617    4.2183   52.8336 H       1  ZINC000461678839    0.0700
@<TRIPOS>BOND
     1     1     2    1
     2     1    31    1
     3     1    32    1
     4     1    33    1
     5     2     3    1
     6     2    30    1
     7     2     4    1
     8     4     5    1
     9     4    34    1
    10     4    35    1
    11     5     6    1
    12     5    36    1
    13     5    37    1
    14     6     7    1
    15     6    38    1
    16     6    39    1
    17     7     8    1
    18     7    29    1
    19     8    21    1
    20     8     9    2
    21     9    10    1
    22    10    11    2
    23    11    12    1
    24    11    21    1
    25    12    13    1
    26    12    40    1
    27    12    41    1
    28    13    14    1
    29    14    20   ar
    30    14    15   ar
    31    15    16   ar
    32    15    42    1
    33    16    17   ar
    34    16    43    1
    35    17    18    1
    36    17    19   ar
    37    19    20   ar
    38    19    44    1
    39    20    45    1
    40    21    22    1
    41    22    23    1
    42    22    46    1
    43    22    47    1
    44    23    24    1
    45    23    28    1
    46    23    25    1
    47    25    26    1
    48    25    48    1
    49    25    49    1
    50    26    27    1
    51    26    50    1
    52    26    51    1
    53    27    28    1
    54    28    52    1
    55    28    53    1
    56    29    30    1
    57    29    54    1
    58    29    55    1
    59    30    56    1
    60    30    57    1
@<TRIPOS>SUBSTRUCTURE
     1 ZINC000461678839        1 TEMP              0 ****  ****    0 ROOT


##########                                Name:    ZINC000373864439
##########                DOCK_Rotatable_Bonds:                   7
##########                         Heavy_Atoms:                  23
##########                    Molecular_Weight:              344.45
##########                DOCK_Rotatable_Bonds:                   7
##########                       Formal_Charge:          -0.0300001
##########                     HBond_Acceptors:                   7
##########                        HBond_Donors:                   1
##########                         Heavy_Atoms:                  23
##########                          Grid_Score:          -28.754229
##########                     Grid_vdw_energy:          -27.050310
##########                      Grid_es_energy:           -1.703918
##########           Internal_energy_repulsive:           21.357695

@<TRIPOS>MOLECULE
ZINC000373864439
 48 49 1 0 0
SMALL
USER_CHARGES


@<TRIPOS>ATOM
      1 C1         -1.5920    2.8561   57.1102 C.3     1  ZINC000373864439   -0.1500
      2 C2         -2.9784    3.2656   56.6089 C.3     1  ZINC000373864439   -0.6300
      3 S3         -2.8116    4.1896   55.0569 S.o2    1  ZINC000373864439    2.6100
      4 O4         -4.0904    4.4752   54.5067 O.2     1  ZINC000373864439   -0.9500
      5 O5         -1.8257    5.2050   55.1844 O.2     1  ZINC000373864439   -0.9600
      6 N6         -2.1452    3.1037   53.9990 N.am    1  ZINC000373864439   -1.1200
      7 C7         -1.8615    3.5051   52.6190 C.3     1  ZINC000373864439    0.1100
      8 C8         -2.6981    2.6570   51.6590 C.3     1  ZINC000373864439    0.0500
      9 N9         -4.1217    2.9683   51.8440 N.3     1  ZINC000373864439   -0.5300
     10 C10        -4.9418    1.7532   51.7567 C.3     1  ZINC000373864439    0.0400
     11 C11        -6.3949    2.0914   52.0973 C.3     1  ZINC000373864439   -0.1300
     12 C12        -6.9107    3.1493   51.1179 C.3     1  ZINC000373864439    0.1800
     13 F13        -6.8878    2.6333   49.8176 F       1  ZINC000373864439   -0.2100
     14 C14        -8.3224    3.5291   51.4841 C.ar    1  ZINC000373864439   -0.1500
     15 C15        -8.9020    3.0150   52.6275 C.ar    1  ZINC000373864439   -0.0700
     16 C16       -10.1975    3.3628   52.9639 C.ar    1  ZINC000373864439   -0.1600
     17 C17       -10.9155    4.2259   52.1573 C.ar    1  ZINC000373864439   -0.0700
     18 C18       -10.3401    4.7433   51.0127 C.ar    1  ZINC000373864439   -0.2100
     19 C19        -9.0389    4.4002   50.6759 C.ar    1  ZINC000373864439    0.1400
     20 O20        -8.4706    4.9077   49.5506 O.3     1  ZINC000373864439   -0.3100
     21 C21        -9.2858    4.9575   48.3780 C.3     1  ZINC000373864439    0.0200
     22 C22        -6.0107    4.3857   51.1937 C.3     1  ZINC000373864439   -0.1300
     23 C23        -4.5688    3.9810   50.8792 C.3     1  ZINC000373864439    0.0600
     24 H24        -0.9894    3.7481   57.2813 H       1  ZINC000373864439    0.0700
     25 H25        -1.6922    2.3008   58.0427 H       1  ZINC000373864439    0.0800
     26 H26        -1.1067    2.2275   56.3634 H       1  ZINC000373864439    0.0700
     27 H27        -3.5810    2.3736   56.4377 H       1  ZINC000373864439    0.1300
     28 H28        -3.4636    3.8942   57.3556 H       1  ZINC000373864439    0.1300
     29 H29        -1.9426    2.2018   54.2932 H       1  ZINC000373864439    0.4200
     30 H30        -2.1132    4.5576   52.4877 H       1  ZINC000373864439    0.0700
     31 H31        -0.8027    3.3556   52.4074 H       1  ZINC000373864439    0.0900
     32 H32        -2.4083    2.8783   50.6317 H       1  ZINC000373864439    0.0900
     33 H33        -2.5275    1.6002   51.8649 H       1  ZINC000373864439    0.0400
     34 H34        -4.8900    1.3521   50.7445 H       1  ZINC000373864439    0.0400
     35 H35        -4.5670    1.0107   52.4611 H       1  ZINC000373864439    0.0900
     36 H36        -7.0061    1.1925   52.0172 H       1  ZINC000373864439    0.0800
     37 H37        -6.4494    2.4797   53.1143 H       1  ZINC000373864439    0.1000
     38 H38        -8.3432    2.3404   53.2593 H       1  ZINC000373864439    0.1300
     39 H39       -10.6491    2.9591   53.8580 H       1  ZINC000373864439    0.1300
     40 H40       -11.9272    4.4958   52.4219 H       1  ZINC000373864439    0.1300
     41 H41       -10.9015    5.4173   50.3827 H       1  ZINC000373864439    0.1300
     42 H42        -8.7121    5.3826   47.5544 H       1  ZINC000373864439    0.1000
     43 H43        -9.6061    3.9492   48.1152 H       1  ZINC000373864439    0.0600
     44 H44       -10.1608    5.5783   48.5698 H       1  ZINC000373864439    0.0600
     45 H45        -6.3475    5.1260   50.4678 H       1  ZINC000373864439    0.0800
     46 H46        -6.0592    4.8101   52.1965 H       1  ZINC000373864439    0.1000
     47 H47        -3.9230    4.8566   50.9463 H       1  ZINC000373864439    0.0800
     48 H48        -4.5186    3.5695   49.8712 H       1  ZINC000373864439    0.0400
@<TRIPOS>BOND
     1     1     2    1
     2     1    24    1
     3     1    25    1
     4     1    26    1
     5     2     3    1
     6     2    27    1
     7     2    28    1
     8     3     4    2
     9     3     5    2
    10     3     6   am
    11     6     7    1
    12     6    29    1
    13     7     8    1
    14     7    30    1
    15     7    31    1
    16     8     9    1
    17     8    32    1
    18     8    33    1
    19     9    23    1
    20     9    10    1
    21    10    11    1
    22    10    34    1
    23    10    35    1
    24    11    12    1
    25    11    36    1
    26    11    37    1
    27    12    13    1
    28    12    14    1
    29    12    22    1
    30    14    19   ar
    31    14    15   ar
    32    15    16   ar
    33    15    38    1
    34    16    17   ar
    35    16    39    1
    36    17    18   ar
    37    17    40    1
    38    18    19   ar
    39    18    41    1
    40    19    20    1
    41    20    21    1
    42    21    42    1
    43    21    43    1
    44    21    44    1
    45    22    23    1
    46    22    45    1
    47    22    46    1
    48    23    47    1
    49    23    48    1
@<TRIPOS>SUBSTRUCTURE
     1 ZINC000373864439        1 TEMP              0 ****  ****    0 ROOT


##########                                Name:    ZINC000876376999
##########                DOCK_Rotatable_Bonds:                   7
##########                         Heavy_Atoms:                  24
##########                    Molecular_Weight:             358.502
##########                DOCK_Rotatable_Bonds:                   7
##########                       Formal_Charge:          -0.0299994
##########                     HBond_Acceptors:                   7
##########                        HBond_Donors:                   2
##########                         Heavy_Atoms:                  24
##########                          Grid_Score:          -28.736399
##########                     Grid_vdw_energy:          -28.142321
##########                      Grid_es_energy:           -0.594078
##########           Internal_energy_repulsive:           32.786911

@<TRIPOS>MOLECULE
ZINC000876376999
 54 56 1 0 0
SMALL
USER_CHARGES


@<TRIPOS>ATOM
      1 C1          3.4933    5.0602   52.8001 C.3     1  ZINC000876376999   -0.1500
      2 C2          2.4741    3.9248   52.9139 C.3     1  ZINC000876376999   -0.1100
      3 C3          1.8772    3.6352   51.5354 C.3     1  ZINC000876376999   -0.0700
      4 C4          1.2104    4.9004   50.9915 C.3     1  ZINC000876376999    0.0900
      5 O5          0.2898    5.4074   51.9596 O.3     1  ZINC000876376999   -0.5600
      6 C6          2.9879    3.1917   50.5806 C.3     1  ZINC000876376999   -0.1100
      7 C7          2.3972    2.9334   49.1926 C.3     1  ZINC000876376999   -0.1400
      8 C8          1.3609    1.8087   49.2844 C.3     1  ZINC000876376999    0.1100
      9 N9          0.3672    2.1637   50.3068 N.am    1  ZINC000876376999   -0.6300
     10 C10        -0.9486    2.1634   50.0150 C.2     1  ZINC000876376999    0.7100
     11 O11        -1.3233    1.8676   48.8967 O.2     1  ZINC000876376999   -0.5800
     12 N12        -1.8491    2.4911   50.9628 N.am    1  ZINC000876376999   -0.7500
     13 C13        -3.2793    2.4908   50.6456 C.3     1  ZINC000876376999    0.1400
     14 C14        -4.0867    2.2425   51.9256 C.3     1  ZINC000876376999   -0.1100
     15 C15        -4.5596    3.5464   52.5084 C.3     1  ZINC000876376999   -0.1100
     16 C16        -6.0095    3.9347   52.1957 C.3     1  ZINC000876376999   -0.5200
     17 H17        -6.3058    4.9058   52.6162 H       1  ZINC000876376999    0.1500
     18 C18        -6.1925    3.8564   50.6627 C.3     1  ZINC000876376999   -0.1200
     19 C19        -6.4667    2.4257   50.2122 C.3     1  ZINC000876376999   -0.1200
     20 C20        -6.4848    1.4545   51.4149 C.3     1  ZINC000876376999   -0.5300
     21 H21        -7.1345    0.5827   51.2549 H       1  ZINC000876376999    0.1500
     22 C22        -5.0310    1.0871   51.7342 C.3     1  ZINC000876376999   -0.1000
     23 S23        -7.0488    2.5371   52.7935 S.o2    1  ZINC000876376999    2.3700
     24 O24        -6.5539    2.0519   54.0331 O.2     1  ZINC000876376999   -0.9300
     25 O25        -8.4260    2.8499   52.6382 O.2     1  ZINC000876376999   -0.9300
     26 C26         0.8350    2.5186   51.6537 C.3     1  ZINC000876376999    0.1400
     27 H27         4.3302    4.7366   52.1811 H       1  ZINC000876376999    0.0500
     28 H28         3.0194    5.9296   52.3444 H       1  ZINC000876376999    0.0600
     29 H29         3.8566    5.3233   53.7935 H       1  ZINC000876376999    0.0500
     30 H30         2.9682    3.0295   53.2913 H       1  ZINC000876376999    0.0600
     31 H31         1.6793    4.2176   53.5998 H       1  ZINC000876376999    0.0700
     32 H32         1.9720    5.6525   50.7855 H       1  ZINC000876376999    0.0500
     33 H33         0.6762    4.6628   50.0715 H       1  ZINC000876376999    0.0400
     34 H34        -0.4313    4.7995   52.1730 H       1  ZINC000876376999    0.3800
     35 H35         3.7434    3.9746   50.5137 H       1  ZINC000876376999    0.0700
     36 H36         3.4459    2.2767   50.9564 H       1  ZINC000876376999    0.0700
     37 H37         1.9173    3.8411   48.8268 H       1  ZINC000876376999    0.0700
     38 H38         3.1924    2.6401   48.5075 H       1  ZINC000876376999    0.0800
     39 H39         0.8664    1.6880   48.3206 H       1  ZINC000876376999    0.0700
     40 H40         1.8553    0.8782   49.5630 H       1  ZINC000876376999    0.0700
     41 H41        -1.5501    2.7272   51.8548 H       1  ZINC000876376999    0.3900
     42 H42        -3.5577    3.4557   50.2219 H       1  ZINC000876376999    0.0800
     43 H43        -3.4913    1.7021   49.9237 H       1  ZINC000876376999    0.0700
     44 H44        -3.3167    1.8649   52.6563 H       1  ZINC000876376999    0.0900
     45 H45        -4.4344    3.5136   53.6049 H       1  ZINC000876376999    0.0900
     46 H46        -3.8965    4.3566   52.1585 H       1  ZINC000876376999    0.0900
     47 H47        -7.0464    4.4795   50.3791 H       1  ZINC000876376999    0.0800
     48 H48        -5.3078    4.2395   50.1626 H       1  ZINC000876376999    0.0900
     49 H49        -7.4454    2.3969   49.7234 H       1  ZINC000876376999    0.0800
     50 H50        -5.7152    2.1130   49.4931 H       1  ZINC000876376999    0.0900
     51 H51        -4.6470    0.4408   50.9258 H       1  ZINC000876376999    0.0900
     52 H52        -5.0194    0.4620   52.6444 H       1  ZINC000876376999    0.0900
     53 H53         1.2866    1.6459   52.1254 H       1  ZINC000876376999    0.0600
     54 H54        -0.0064    2.8662   52.2531 H       1  ZINC000876376999    0.1000
@<TRIPOS>BOND
     1     1     2    1
     2     1    27    1
     3     1    28    1
     4     1    29    1
     5     2     3    1
     6     2    30    1
     7     2    31    1
     8     3    26    1
     9     3     4    1
    10     3     6    1
    11     4     5    1
    12     4    32    1
    13     4    33    1
    14     5    34    1
    15     6     7    1
    16     6    35    1
    17     6    36    1
    18     7     8    1
    19     7    37    1
    20     7    38    1
    21     8     9    1
    22     8    39    1
    23     8    40    1
    24     9    10   am
    25     9    26    1
    26    10    11    2
    27    10    12   am
    28    12    13    1
    29    12    41    1
    30    13    14    1
    31    13    42    1
    32    13    43    1
    33    14    22    1
    34    14    15    1
    35    14    44    1
    36    15    16    1
    37    15    45    1
    38    15    46    1
    39    16    17    1
    40    16    23    1
    41    16    18    1
    42    18    19    1
    43    18    47    1
    44    18    48    1
    45    19    20    1
    46    19    49    1
    47    19    50    1
    48    20    21    1
    49    20    22    1
    50    20    23    1
    51    22    51    1
    52    22    52    1
    53    23    24    2
    54    23    25    2
    55    26    53    1
    56    26    54    1
@<TRIPOS>SUBSTRUCTURE
     1 ZINC000876376999        1 TEMP              0 ****  ****    0 ROOT


##########                                Name:    ZINC000676204775
##########                DOCK_Rotatable_Bonds:                   4
##########                         Heavy_Atoms:                  25
##########                    Molecular_Weight:             359.452
##########                DOCK_Rotatable_Bonds:                   4
##########                       Formal_Charge:          0.00999978
##########                     HBond_Acceptors:                   8
##########                        HBond_Donors:                   2
##########                         Heavy_Atoms:                  25
##########                          Grid_Score:          -28.700212
##########                     Grid_vdw_energy:          -28.999098
##########                      Grid_es_energy:            0.298885
##########           Internal_energy_repulsive:            5.059033

@<TRIPOS>MOLECULE
ZINC000676204775
 46 49 1 0 0
SMALL
USER_CHARGES


@<TRIPOS>ATOM
      1 C1         -4.2322    3.0777   52.8477 C.3     1  ZINC000676204775   -0.1600
      2 C2         -5.2373    2.8104   51.7254 C.3     1  ZINC000676204775    0.1600
      3 C3         -4.4965    2.7127   50.3902 C.3     1  ZINC000676204775   -0.1600
      4 N4         -5.9389    1.5515   51.9878 N.pl3   1  ZINC000676204775   -0.3900
      5 N5         -5.3741    0.2747   51.9031 N.2     1  ZINC000676204775   -0.2500
      6 C6         -6.2643   -0.6290   52.1983 C.2     1  ZINC000676204775    0.0900
      7 C7         -7.5141    0.0596   52.5041 C.ar    1  ZINC000676204775   -0.2100
      8 C8         -8.7927   -0.3666   52.8793 C.ar    1  ZINC000676204775    0.0800
      9 C9         -9.7746    0.5560   53.0982 C.ar    1  ZINC000676204775   -0.7200
     10 S10       -11.3853    0.0208   53.5713 S.o2    1  ZINC000676204775    2.6900
     11 O11       -12.3028    0.9058   52.9436 O.2     1  ZINC000676204775   -0.9300
     12 O12       -11.4114   -1.3875   53.3834 O.2     1  ZINC000676204775   -0.9600
     13 N13       -11.5281    0.2777   55.2010 N.am    1  ZINC000676204775   -1.1100
     14 C14       -10.6093   -0.3845   56.1303 C.3     1  ZINC000676204775    0.2400
     15 H15        -9.8966   -0.9920   55.5724 H       1  ZINC000676204775    0.1000
     16 C16       -11.4023   -1.2736   57.0963 C.3     1  ZINC000676204775   -0.1200
     17 C17       -10.4819   -1.7743   58.2116 C.3     1  ZINC000676204775   -0.1200
     18 C18       -10.1395   -0.6174   59.1587 C.3     1  ZINC000676204775   -0.0400
     19 C19        -9.6597    0.5462   58.3266 C.2     1  ZINC000676204775   -0.2300
     20 C20        -8.9798    1.6357   58.7290 C.2     1  ZINC000676204775    0.0600
     21 N21        -8.7628    2.4077   57.6405 N.pl3   1  ZINC000676204775   -0.4800
     22 N22        -9.3334    1.7640   56.5319 N.2     1  ZINC000676204775   -0.2400
     23 C23        -9.8700    0.6522   56.9410 C.2     1  ZINC000676204775    0.0500
     24 C24        -9.5160    1.9131   52.9517 C.ar    1  ZINC000676204775    0.0100
     25 C25        -8.2754    2.3538   52.5862 C.ar    1  ZINC000676204775   -0.1500
     26 C26        -7.2524    1.4362   52.3615 C.ar    1  ZINC000676204775    0.1700
     27 H27        -4.7599    3.1473   53.7989 H       1  ZINC000676204775    0.0600
     28 H28        -3.5108    2.2618   52.8912 H       1  ZINC000676204775    0.0700
     29 H29        -3.7101    4.0144   52.6524 H       1  ZINC000676204775    0.0800
     30 H30        -5.9587    3.6263   51.6818 H       1  ZINC000676204775    0.1000
     31 H31        -3.7751    1.8968   50.4337 H       1  ZINC000676204775    0.0700
     32 H32        -5.2125    2.5223   49.5906 H       1  ZINC000676204775    0.0600
     33 H33        -3.9745    3.6494   50.1949 H       1  ZINC000676204775    0.0800
     34 H34        -6.1060   -1.6972   52.2138 H       1  ZINC000676204775    0.2000
     35 H35        -9.0018   -1.4198   52.9949 H       1  ZINC000676204775    0.1500
     36 H36       -12.2201    0.8668   55.5404 H       1  ZINC000676204775    0.4200
     37 H37       -12.2190   -0.6977   57.5314 H       1  ZINC000676204775    0.0800
     38 H38       -11.8101   -2.1259   56.5528 H       1  ZINC000676204775    0.0800
     39 H39       -10.9854   -2.5633   58.7703 H       1  ZINC000676204775    0.0700
     40 H40        -9.5645   -2.1691   57.7749 H       1  ZINC000676204775    0.0700
     41 H41       -11.0273   -0.3267   59.7201 H       1  ZINC000676204775    0.0700
     42 H42        -9.3530   -0.9262   59.8472 H       1  ZINC000676204775    0.0700
     43 H43        -8.6645    1.8538   59.7386 H       1  ZINC000676204775    0.1800
     44 H44        -8.2949    3.2573   57.6282 H       1  ZINC000676204775    0.4400
     45 H45       -10.3055    2.6286   53.1287 H       1  ZINC000676204775    0.1500
     46 H46        -8.0877    3.4116   52.4758 H       1  ZINC000676204775    0.1300
@<TRIPOS>BOND
     1     1     2    1
     2     1    27    1
     3     1    28    1
     4     1    29    1
     5     2     3    1
     6     2     4    1
     7     2    30    1
     8     3    31    1
     9     3    32    1
    10     3    33    1
    11     4    26    1
    12     4     5    1
    13     5     6    2
    14     6     7    1
    15     6    34    1
    16     7    26   ar
    17     7     8   ar
    18     8     9   ar
    19     8    35    1
    20     9    10    1
    21     9    24   ar
    22    10    11    2
    23    10    12    2
    24    10    13   am
    25    13    14    1
    26    13    36    1
    27    14    15    1
    28    14    23    1
    29    14    16    1
    30    16    17    1
    31    16    37    1
    32    16    38    1
    33    17    18    1
    34    17    39    1
    35    17    40    1
    36    18    19    1
    37    18    41    1
    38    18    42    1
    39    19    23    1
    40    19    20    2
    41    20    21    1
    42    20    43    1
    43    21    22    1
    44    21    44    1
    45    22    23    2
    46    24    25   ar
    47    24    45    1
    48    25    26   ar
    49    25    46    1
@<TRIPOS>SUBSTRUCTURE
     1 ZINC000676204775        1 TEMP              0 ****  ****    0 ROOT


##########                                Name:    ZINC001045463759
##########                DOCK_Rotatable_Bonds:                   6
##########                         Heavy_Atoms:                  24
##########                    Molecular_Weight:             336.385
##########                DOCK_Rotatable_Bonds:                   6
##########                       Formal_Charge:          1.3411e-07
##########                     HBond_Acceptors:                   7
##########                        HBond_Donors:                   2
##########                         Heavy_Atoms:                  24
##########                          Grid_Score:          -28.658398
##########                     Grid_vdw_energy:          -26.918516
##########                      Grid_es_energy:           -1.739881
##########           Internal_energy_repulsive:            8.010455

@<TRIPOS>MOLECULE
ZINC001045463759
 46 49 1 0 0
SMALL
USER_CHARGES


@<TRIPOS>ATOM
      1 O1         -0.5133    5.2822   51.4885 O.2     1  ZINC001045463759   -0.5100
      2 C2         -0.0323    4.2157   51.8080 C.2     1  ZINC001045463759    0.5400
      3 N3         -0.4229    3.6153   52.9497 N.am    1  ZINC001045463759   -0.7200
      4 C4         -1.4240    4.2538   53.8077 C.3     1  ZINC001045463759    0.1400
      5 H5         -1.4967    5.3118   53.5558 H       1  ZINC001045463759    0.1000
      6 C6         -1.0090    4.1057   55.2728 C.3     1  ZINC001045463759   -0.1300
      7 C7         -2.0545    4.7726   56.1690 C.3     1  ZINC001045463759   -0.1200
      8 C8         -3.4130    4.1026   55.9534 C.3     1  ZINC001045463759   -0.1200
      9 C9         -3.8280    4.2507   54.4883 C.3     1  ZINC001045463759   -0.1300
     10 C10        -2.7825    3.5838   53.5922 C.3     1  ZINC001045463759    0.1500
     11 H11        -2.7098    2.5258   53.8441 H       1  ZINC001045463759    0.0900
     12 N12        -3.1799    3.7256   52.1892 N.pl3   1  ZINC001045463759   -0.7100
     13 C13        -4.4596    3.3730   51.7927 C.ar    1  ZINC001045463759    0.4400
     14 C14        -5.3949    4.3548   51.4599 C.ar    1  ZINC001045463759   -0.3000
     15 C15        -6.6574    3.9524   51.0707 C.ar    1  ZINC001045463759    0.1800
     16 N16        -6.9383    2.6577   51.0258 N.ar    1  ZINC001045463759   -0.5600
     17 C17        -6.0332    1.7552   51.3462 C.ar    1  ZINC001045463759    0.4000
     18 C18        -6.3994    0.2947   51.2799 C.3     1  ZINC001045463759   -0.1100
     19 C19        -6.1001   -0.5651   52.5095 C.3     1  ZINC001045463759   -0.1500
     20 C20        -7.5441   -0.1878   52.1730 C.3     1  ZINC001045463759   -0.1500
     21 N21        -4.8153    2.0937   51.7177 N.ar    1  ZINC001045463759   -0.5700
     22 C22         0.9976    3.5588   50.9254 C.3     1  ZINC001045463759   -0.2000
     23 H23         1.8265    4.1955   50.6161 H       1  ZINC001045463759    0.1500
     24 C24         1.2969    2.0785   51.1701 C.3     1  ZINC001045463759   -0.1500
     25 C25         0.5066    2.5052   49.9305 C.3     1  ZINC001045463759    0.2300
     26 F26        -0.8639    2.2250   49.9101 F       1  ZINC001045463759   -0.1400
     27 F27         1.1562    2.4323   48.6936 F       1  ZINC001045463759   -0.1500
     28 H28        -0.0411    2.7604   53.2033 H       1  ZINC001045463759    0.4000
     29 H29        -0.9363    3.0478   55.5247 H       1  ZINC001045463759    0.0700
     30 H30        -0.0412    4.5831   55.4265 H       1  ZINC001045463759    0.0800
     31 H31        -1.7589    4.6672   57.2129 H       1  ZINC001045463759    0.0700
     32 H32        -2.1272    5.8307   55.9171 H       1  ZINC001045463759    0.0700
     33 H33        -3.3403    3.0446   56.2053 H       1  ZINC001045463759    0.0700
     34 H34        -4.1579    4.5777   56.5918 H       1  ZINC001045463759    0.0700
     35 H35        -4.7958    3.7733   54.3347 H       1  ZINC001045463759    0.0700
     36 H36        -3.9007    5.3087   54.2364 H       1  ZINC001045463759    0.0700
     37 H37        -2.5469    4.0662   51.5380 H       1  ZINC001045463759    0.4100
     38 H38        -5.1376    5.4027   51.5062 H       1  ZINC001045463759    0.1400
     39 H39        -7.4070    4.6837   50.8063 H       1  ZINC001045463759    0.1700
     40 H40        -6.2937   -0.1724   50.3008 H       1  ZINC001045463759    0.1300
     41 H41        -5.7971   -1.5983   52.3395 H       1  ZINC001045463759    0.1000
     42 H42        -5.6382   -0.0745   53.3663 H       1  ZINC001045463759    0.1100
     43 H43        -8.0323    0.5510   52.8085 H       1  ZINC001045463759    0.1000
     44 H44        -8.1913   -0.9727   51.7817 H       1  ZINC001045463759    0.1000
     45 H45         2.3226    1.7412   51.0214 H       1  ZINC001045463759    0.1400
     46 H46         0.7489    1.5797   51.9695 H       1  ZINC001045463759    0.1300
@<TRIPOS>BOND
     1     1     2    2
     2     2     3   am
     3     2    22    1
     4     3     4    1
     5     3    28    1
     6     4     5    1
     7     4    10    1
     8     4     6    1
     9     6     7    1
    10     6    29    1
    11     6    30    1
    12     7     8    1
    13     7    31    1
    14     7    32    1
    15     8     9    1
    16     8    33    1
    17     8    34    1
    18     9    10    1
    19     9    35    1
    20     9    36    1
    21    10    11    1
    22    10    12    1
    23    12    13    1
    24    12    37    1
    25    13    21   ar
    26    13    14   ar
    27    14    15   ar
    28    14    38    1
    29    15    16   ar
    30    15    39    1
    31    16    17   ar
    32    17    18    1
    33    17    21   ar
    34    18    20    1
    35    18    19    1
    36    18    40    1
    37    19    20    1
    38    19    41    1
    39    19    42    1
    40    20    43    1
    41    20    44    1
    42    22    23    1
    43    22    25    1
    44    22    24    1
    45    24    25    1
    46    24    45    1
    47    24    46    1
    48    25    26    1
    49    25    27    1
@<TRIPOS>SUBSTRUCTURE
     1 ZINC001045463759        1 TEMP              0 ****  ****    0 ROOT


##########                                Name:    ZINC001456607258
##########                DOCK_Rotatable_Bonds:                   9
##########                         Heavy_Atoms:                  25
##########                    Molecular_Weight:             339.437
##########                DOCK_Rotatable_Bonds:                   9
##########                       Formal_Charge:          -0.0200009
##########                     HBond_Acceptors:                   5
##########                        HBond_Donors:                   2
##########                         Heavy_Atoms:                  25
##########                          Grid_Score:          -28.605375
##########                     Grid_vdw_energy:          -27.916054
##########                      Grid_es_energy:           -0.689321
##########           Internal_energy_repulsive:           14.310801

@<TRIPOS>MOLECULE
ZINC001456607258
 50 52 1 0 0
SMALL
USER_CHARGES


@<TRIPOS>ATOM
      1 C1         -3.7196    4.3462   54.7212 C.3     1  ZINC001456607258   -0.1600
      2 C2         -2.4826    4.9082   54.0177 C.3     1  ZINC001456607258   -0.1100
      3 C3         -1.9620    3.8847   53.0065 C.3     1  ZINC001456607258   -0.1000
      4 H4         -1.5781    3.0131   53.5365 H       1  ZINC001456607258    0.0900
      5 C5         -0.8398    4.5124   52.1772 C.3     1  ZINC001456607258   -0.0700
      6 C6          0.0207    3.4232   51.5906 C.ar    1  ZINC001456607258   -0.0800
      7 C7          1.1327    2.9748   52.2786 C.ar    1  ZINC001456607258   -0.1200
      8 C8          1.9221    1.9757   51.7405 C.ar    1  ZINC001456607258   -0.1200
      9 C9          1.5992    1.4246   50.5146 C.ar    1  ZINC001456607258   -0.1200
     10 C10         0.4867    1.8723   49.8270 C.ar    1  ZINC001456607258   -0.1200
     11 C11        -0.3051    2.8683   50.3671 C.ar    1  ZINC001456607258   -0.1200
     12 C12        -3.0853    3.4636   52.0944 C.2     1  ZINC001456607258    0.5200
     13 O13        -3.5360    4.2470   51.2858 O.2     1  ZINC001456607258   -0.5300
     14 N14        -3.5892    2.2162   52.1774 N.am    1  ZINC001456607258   -0.7300
     15 C15        -4.6812    1.8069   51.2908 C.3     1  ZINC001456607258    0.1300
     16 C16        -5.5970    0.8279   52.0282 C.3     1  ZINC001456607258   -0.1400
     17 C17        -6.7809    1.5047   52.7423 C.3     1  ZINC001456607258    0.1100
     18 N18        -7.5973    0.3849   52.2348 N.am    1  ZINC001456607258   -0.6500
     19 C19        -8.7456   -0.2011   52.6283 C.2     1  ZINC001456607258    0.6100
     20 O20        -9.1981   -1.1370   51.9969 O.2     1  ZINC001456607258   -0.5400
     21 C21        -9.4521    0.2918   53.8226 C.2     1  ZINC001456607258   -0.2300
     22 C22        -9.2395    1.4760   54.4732 C.2     1  ZINC001456607258    0.0400
     23 N23       -10.0898    1.5472   55.5148 N.pl3   1  ZINC001456607258   -0.5500
     24 C24       -10.8672    0.4271   55.5687 C.2     1  ZINC001456607258   -0.0200
     25 C25       -10.5305   -0.3850   54.5510 C.2     1  ZINC001456607258   -0.1400
     26 C26        -6.6514    0.1644   51.1238 C.3     1  ZINC001456607258    0.1100
     27 H27        -4.0363    5.0349   55.5046 H       1  ZINC001456607258    0.0600
     28 H28        -4.5253    4.2242   53.9972 H       1  ZINC001456607258    0.0600
     29 H29        -3.4786    3.3795   55.1631 H       1  ZINC001456607258    0.0600
     30 H30        -2.7469    5.8296   53.4987 H       1  ZINC001456607258    0.0800
     31 H31        -1.7079    5.1162   54.7558 H       1  ZINC001456607258    0.0700
     32 H32        -1.2719    5.1071   51.3724 H       1  ZINC001456607258    0.0800
     33 H33        -0.2307    5.1525   52.8155 H       1  ZINC001456607258    0.0900
     34 H34         1.3850    3.4054   53.2365 H       1  ZINC001456607258    0.1200
     35 H35         2.7912    1.6260   52.2778 H       1  ZINC001456607258    0.1200
     36 H36         2.2163    0.6446   50.0939 H       1  ZINC001456607258    0.1200
     37 H37         0.2347    1.4420   48.8690 H       1  ZINC001456607258    0.1200
     38 H38        -1.1743    3.2181   49.8299 H       1  ZINC001456607258    0.1200
     39 H39        -3.2287    1.5897   52.8242 H       1  ZINC001456607258    0.4000
     40 H40        -5.2539    2.6844   50.9907 H       1  ZINC001456607258    0.0700
     41 H41        -4.2686    1.3222   50.4060 H       1  ZINC001456607258    0.0800
     42 H42        -5.0496    0.1231   52.6540 H       1  ZINC001456607258    0.1100
     43 H43        -6.6868    1.5230   53.8281 H       1  ZINC001456607258    0.0800
     44 H44        -7.0528    2.4727   52.3214 H       1  ZINC001456607258    0.0900
     45 H45        -8.5128    2.2262   54.1984 H       1  ZINC001456607258    0.1700
     46 H46       -10.1420    2.2887   56.1381 H       1  ZINC001456607258    0.4200
     47 H47       -11.6315    0.2277   56.3052 H       1  ZINC001456607258    0.1700
     48 H48       -10.9628   -1.3475   54.3205 H       1  ZINC001456607258    0.1500
     49 H49        -6.8852    0.7387   50.2273 H       1  ZINC001456607258    0.0900
     50 H50        -6.4538   -0.8875   50.9172 H       1  ZINC001456607258    0.0900
@<TRIPOS>BOND
     1     1     2    1
     2     1    27    1
     3     1    28    1
     4     1    29    1
     5     2     3    1
     6     2    30    1
     7     2    31    1
     8     3     4    1
     9     3     5    1
    10     3    12    1
    11     5     6    1
    12     5    32    1
    13     5    33    1
    14     6    11   ar
    15     6     7   ar
    16     7     8   ar
    17     7    34    1
    18     8     9   ar
    19     8    35    1
    20     9    10   ar
    21     9    36    1
    22    10    11   ar
    23    10    37    1
    24    11    38    1
    25    12    13    2
    26    12    14   am
    27    14    15    1
    28    14    39    1
    29    15    16    1
    30    15    40    1
    31    15    41    1
    32    16    26    1
    33    16    17    1
    34    16    42    1
    35    17    18    1
    36    17    43    1
    37    17    44    1
    38    18    19   am
    39    18    26    1
    40    19    20    2
    41    19    21    1
    42    21    25    1
    43    21    22    2
    44    22    23    1
    45    22    45    1
    46    23    24    1
    47    23    46    1
    48    24    25    2
    49    24    47    1
    50    25    48    1
    51    26    49    1
    52    26    50    1
@<TRIPOS>SUBSTRUCTURE
     1 ZINC001456607258        1 TEMP              0 ****  ****    0 ROOT


##########                                Name:    ZINC000549381790
##########                DOCK_Rotatable_Bonds:                   7
##########                         Heavy_Atoms:                  23
##########                    Molecular_Weight:             337.846
##########                DOCK_Rotatable_Bonds:                   7
##########                       Formal_Charge:           0.0300006
##########                     HBond_Acceptors:                   5
##########                        HBond_Donors:                   0
##########                         Heavy_Atoms:                  23
##########                          Grid_Score:          -28.584677
##########                     Grid_vdw_energy:          -27.915470
##########                      Grid_es_energy:           -0.669206
##########           Internal_energy_repulsive:           89.873108

@<TRIPOS>MOLECULE
ZINC000549381790
 47 49 1 0 0
SMALL
USER_CHARGES


@<TRIPOS>ATOM
      1 C1        -13.5155   -0.3973   55.2001 C.3     1  ZINC000549381790   -0.1400
      2 C2        -13.3868    0.5434   54.0005 C.3     1  ZINC000549381790    0.1500
      3 H3        -14.1607    0.3107   53.2690 H       1  ZINC000549381790    0.0700
      4 C4        -13.5407    1.9944   54.4668 C.3     1  ZINC000549381790   -0.1300
      5 C5        -13.2733    2.9355   53.2899 C.3     1  ZINC000549381790   -0.1200
      6 C6        -11.8398    2.7376   52.7919 C.3     1  ZINC000549381790   -0.1400
      7 C7        -11.6667    1.2950   52.3065 C.3     1  ZINC000549381790    0.1000
      8 N8        -12.0626    0.3792   53.3856 N.am    1  ZINC000549381790   -0.6100
      9 C9        -11.2250   -0.5892   53.8063 C.2     1  ZINC000549381790    0.5200
     10 O10       -11.5634   -1.3386   54.6978 O.2     1  ZINC000549381790   -0.5000
     11 C11        -9.8677   -0.7407   53.1691 C.3     1  ZINC000549381790    0.0400
     12 O12        -9.0120    0.3136   53.6147 O.3     1  ZINC000549381790   -0.2800
     13 C13        -8.0067    0.6877   52.7788 C.ar    1  ZINC000549381790    0.1100
     14 C14        -7.1289   -0.2635   52.2809 C.ar    1  ZINC000549381790   -0.1700
     15 C15        -6.1075    0.1160   51.4312 C.ar    1  ZINC000549381790   -0.1600
     16 C16        -5.9595    1.4480   51.0764 C.ar    1  ZINC000549381790    0.1100
     17 O17        -4.9540    1.8214   50.2401 O.3     1  ZINC000549381790   -0.3000
     18 C18        -3.6181    1.6754   50.7259 C.3     1  ZINC000549381790    0.0900
     19 C19        -3.4305    2.5446   51.9710 C.3     1  ZINC000549381790   -0.1600
     20 C20        -2.0096    3.0037   52.3044 C.3     1  ZINC000549381790   -0.1700
     21 C21        -3.0290    4.0056   51.7587 C.3     1  ZINC000549381790   -0.1700
     22 C22        -6.8379    2.4005   51.5747 C.ar    1  ZINC000549381790   -0.0300
     23 Cl23       -6.6532    4.0686   51.1303 Cl      1  ZINC000549381790   -0.0400
     24 C24        -7.8628    2.0198   52.4199 C.ar    1  ZINC000549381790   -0.1000
     25 H25       -12.6825   -0.2311   55.8832 H       1  ZINC000549381790    0.0600
     26 H26       -14.4544   -0.2001   55.7175 H       1  ZINC000549381790    0.0500
     27 H27       -13.5013   -1.4310   54.8546 H       1  ZINC000549381790    0.0800
     28 H28       -14.5541    2.1524   54.8360 H       1  ZINC000549381790    0.0800
     29 H29       -12.8266    2.1978   55.2647 H       1  ZINC000549381790    0.0700
     30 H30       -13.9719    2.7149   52.4827 H       1  ZINC000549381790    0.0700
     31 H31       -13.4064    3.9679   53.6129 H       1  ZINC000549381790    0.0700
     32 H32       -11.6426    3.4245   51.9688 H       1  ZINC000549381790    0.0800
     33 H33       -11.1417    2.9339   53.6056 H       1  ZINC000549381790    0.0700
     34 H34       -12.2987    1.1244   51.4350 H       1  ZINC000549381790    0.0800
     35 H35       -10.6233    1.1207   52.0436 H       1  ZINC000549381790    0.0800
     36 H36        -9.4383   -1.7015   53.4528 H       1  ZINC000549381790    0.0900
     37 H37        -9.9680   -0.6935   52.0848 H       1  ZINC000549381790    0.0900
     38 H38        -7.2436   -1.3012   52.5575 H       1  ZINC000549381790    0.1400
     39 H39        -5.4242   -0.6251   51.0437 H       1  ZINC000549381790    0.1400
     40 H40        -3.4361    0.6314   50.9809 H       1  ZINC000549381790    0.0700
     41 H41        -2.9147    1.9890   49.9546 H       1  ZINC000549381790    0.0700
     42 H42        -4.0963    2.3216   52.8047 H       1  ZINC000549381790    0.1200
     43 H43        -1.7403    3.0828   53.3576 H       1  ZINC000549381790    0.1000
     44 H44        -1.2085    2.6865   51.6367 H       1  ZINC000549381790    0.1000
     45 H45        -2.8987    4.3477   50.7320 H       1  ZINC000549381790    0.1000
     46 H46        -3.4305    4.7438   52.4529 H       1  ZINC000549381790    0.1000
     47 H47        -8.5464    2.7605   52.8077 H       1  ZINC000549381790    0.1500
@<TRIPOS>BOND
     1     1     2    1
     2     1    25    1
     3     1    26    1
     4     1    27    1
     5     2     3    1
     6     2     8    1
     7     2     4    1
     8     4     5    1
     9     4    28    1
    10     4    29    1
    11     5     6    1
    12     5    30    1
    13     5    31    1
    14     6     7    1
    15     6    32    1
    16     6    33    1
    17     7     8    1
    18     7    34    1
    19     7    35    1
    20     8     9   am
    21     9    10    2
    22     9    11    1
    23    11    12    1
    24    11    36    1
    25    11    37    1
    26    12    13    1
    27    13    24   ar
    28    13    14   ar
    29    14    15   ar
    30    14    38    1
    31    15    16   ar
    32    15    39    1
    33    16    17    1
    34    16    22   ar
    35    17    18    1
    36    18    19    1
    37    18    40    1
    38    18    41    1
    39    19    21    1
    40    19    20    1
    41    19    42    1
    42    20    21    1
    43    20    43    1
    44    20    44    1
    45    21    45    1
    46    21    46    1
    47    22    23    1
    48    22    24   ar
    49    24    47    1
@<TRIPOS>SUBSTRUCTURE
     1 ZINC000549381790        1 TEMP              0 ****  ****    0 ROOT


##########                                Name:    ZINC000581017854
##########                DOCK_Rotatable_Bonds:                   6
##########                         Heavy_Atoms:                  24
##########                    Molecular_Weight:             330.334
##########                DOCK_Rotatable_Bonds:                   6
##########                       Formal_Charge:           0.0099998
##########                     HBond_Acceptors:                   6
##########                        HBond_Donors:                   2
##########                         Heavy_Atoms:                  24
##########                          Grid_Score:          -28.584087
##########                     Grid_vdw_energy:          -25.955145
##########                      Grid_es_energy:           -2.628942
##########           Internal_energy_repulsive:            9.634483

@<TRIPOS>MOLECULE
ZINC000581017854
 40 42 1 0 0
SMALL
USER_CHARGES


@<TRIPOS>ATOM
      1 C1         -6.1793   -0.6819   51.5068 C.3     1  ZINC000581017854   -0.1600
      2 C2         -6.2980    0.8214   51.7658 C.3     1  ZINC000581017854    0.1500
      3 H3         -6.5899    1.3267   50.8452 H       1  ZINC000581017854    0.1100
      4 C4         -7.3561    1.0714   52.8422 C.3     1  ZINC000581017854    0.0500
      5 O5         -8.6069    0.5271   52.4162 O.3     1  ZINC000581017854   -0.3100
      6 C6         -9.6525    0.6358   53.2775 C.ar    1  ZINC000581017854    0.1600
      7 C7        -10.9107    0.1878   52.9024 C.ar    1  ZINC000581017854   -0.2200
      8 C8        -11.9731    0.2988   53.7790 C.ar    1  ZINC000581017854   -0.0500
      9 C9        -11.7841    0.8563   55.0294 C.ar    1  ZINC000581017854   -0.1900
     10 C10       -10.5294    1.3050   55.4072 C.ar    1  ZINC000581017854    0.1400
     11 F11       -10.3466    1.8497   56.6300 F       1  ZINC000581017854   -0.1300
     12 C12        -9.4617    1.1896   54.5349 C.ar    1  ZINC000581017854   -0.1900
     13 N13        -5.0064    1.3421   52.2204 N.am    1  ZINC000581017854   -0.7300
     14 C14        -4.0938    1.7595   51.3208 C.2     1  ZINC000581017854    0.5900
     15 O15        -4.3421    1.7027   50.1311 O.2     1  ZINC000581017854   -0.5400
     16 C16        -2.7992    2.2834   51.7767 C.2     1  ZINC000581017854   -0.2200
     17 C17        -2.5074    2.7727   53.0154 C.2     1  ZINC000581017854    0.1100
     18 N18        -1.2102    3.1625   53.0604 N.pl3   1  ZINC000581017854   -0.5700
     19 C19        -0.5985    2.9417   51.8436 C.ar    1  ZINC000581017854    0.1100
     20 C20         0.6917    3.1614   51.3736 C.ar    1  ZINC000581017854   -0.1600
     21 C21         1.0163    2.8308   50.0736 C.ar    1  ZINC000581017854    0.1200
     22 F22         2.2710    3.0455   49.6212 F       1  ZINC000581017854   -0.1400
     23 C23         0.0640    2.2783   49.2262 C.ar    1  ZINC000581017854   -0.1700
     24 C24        -1.2189    2.0539   49.6755 C.ar    1  ZINC000581017854   -0.0300
     25 C25        -1.5574    2.3777   50.9867 C.ar    1  ZINC000581017854   -0.0700
     26 H26        -7.1403   -1.0694   51.1687 H       1  ZINC000581017854    0.0700
     27 H27        -5.4255   -0.8600   50.7400 H       1  ZINC000581017854    0.0700
     28 H28        -5.8875   -1.1873   52.4275 H       1  ZINC000581017854    0.0700
     29 H29        -7.0491    0.5921   53.7718 H       1  ZINC000581017854    0.0700
     30 H30        -7.4631    2.1440   53.0045 H       1  ZINC000581017854    0.0800
     31 H31       -11.0600   -0.2474   51.9253 H       1  ZINC000581017854    0.1400
     32 H32       -12.9525   -0.0501   53.4864 H       1  ZINC000581017854    0.1400
     33 H33       -12.6160    0.9423   55.7128 H       1  ZINC000581017854    0.1400
     34 H34        -8.4831    1.5390   54.8290 H       1  ZINC000581017854    0.1400
     35 H35        -4.8079    1.3864   53.1688 H       1  ZINC000581017854    0.4000
     36 H36        -3.2049    2.8396   53.8371 H       1  ZINC000581017854    0.1800
     37 H37        -0.7735    3.5436   53.8383 H       1  ZINC000581017854    0.4200
     38 H38         1.4387    3.5907   52.0248 H       1  ZINC000581017854    0.1400
     39 H39         0.3305    2.0243   48.2109 H       1  ZINC000581017854    0.1400
     40 H40        -1.9576    1.6247   49.0148 H       1  ZINC000581017854    0.1500
@<TRIPOS>BOND
     1     1     2    1
     2     1    26    1
     3     1    27    1
     4     1    28    1
     5     2     3    1
     6     2     4    1
     7     2    13    1
     8     4     5    1
     9     4    29    1
    10     4    30    1
    11     5     6    1
    12     6    12   ar
    13     6     7   ar
    14     7     8   ar
    15     7    31    1
    16     8     9   ar
    17     8    32    1
    18     9    10   ar
    19     9    33    1
    20    10    11    1
    21    10    12   ar
    22    12    34    1
    23    13    14   am
    24    13    35    1
    25    14    15    2
    26    14    16    1
    27    16    25    1
    28    16    17    2
    29    17    18    1
    30    17    36    1
    31    18    19    1
    32    18    37    1
    33    19    25   ar
    34    19    20   ar
    35    20    21   ar
    36    20    38    1
    37    21    22    1
    38    21    23   ar
    39    23    24   ar
    40    23    39    1
    41    24    25   ar
    42    24    40    1
@<TRIPOS>SUBSTRUCTURE
     1 ZINC000581017854        1 TEMP              0 ****  ****    0 ROOT


##########                                Name:    ZINC000518234532
##########                DOCK_Rotatable_Bonds:                   5
##########                         Heavy_Atoms:                  25
##########                    Molecular_Weight:             408.267
##########                DOCK_Rotatable_Bonds:                   5
##########                       Formal_Charge:         -0.00999981
##########                     HBond_Acceptors:                   5
##########                        HBond_Donors:                   1
##########                         Heavy_Atoms:                  25
##########                          Grid_Score:          -28.570711
##########                     Grid_vdw_energy:          -28.141302
##########                      Grid_es_energy:           -0.429409
##########           Internal_energy_repulsive:           14.567320

@<TRIPOS>MOLECULE
ZINC000518234532
 44 46 1 0 0
SMALL
USER_CHARGES


@<TRIPOS>ATOM
      1 C1        -12.2974   -0.2330   53.1263 C.3     1  ZINC000518234532   -0.1600
      2 C2        -11.3966    0.5183   54.1087 C.3     1  ZINC000518234532    0.1800
      3 H3        -11.9132    1.4085   54.4675 H       1  ZINC000518234532    0.1100
      4 N4        -11.0784   -0.3522   55.2433 N.am    1  ZINC000518234532   -0.7300
      5 C5        -11.9308   -0.4421   56.2835 C.2     1  ZINC000518234532    0.5200
      6 O6        -12.9618    0.1967   56.2795 O.2     1  ZINC000518234532   -0.5200
      7 C7        -11.6026   -1.3361   57.4514 C.3     1  ZINC000518234532   -0.0700
      8 H8        -11.0531   -0.7671   58.2014 H       1  ZINC000518234532    0.1100
      9 C9        -10.7451   -2.5085   56.9711 C.3     1  ZINC000518234532   -0.1400
     10 C10       -12.8791   -1.8620   58.0556 C.ar    1  ZINC000518234532   -0.1000
     11 C11       -13.8342   -2.4510   57.2492 C.ar    1  ZINC000518234532   -0.0600
     12 C12       -15.0055   -2.9335   57.8033 C.ar    1  ZINC000518234532   -0.1300
     13 C13       -15.2228   -2.8269   59.1642 C.ar    1  ZINC000518234532   -0.0900
     14 C14       -14.2691   -2.2376   59.9728 C.ar    1  ZINC000518234532   -0.1600
     15 C15       -13.0931   -1.7601   59.4200 C.ar    1  ZINC000518234532    0.1000
     16 F16       -12.1602   -1.1840   60.2093 F       1  ZINC000518234532   -0.1400
     17 C17       -10.1224    0.9229   53.4132 C.ar    1  ZINC000518234532   -0.0600
     18 C18        -9.1067    0.0014   53.2432 C.ar    1  ZINC000518234532   -0.1100
     19 C19        -7.9331    0.3706   52.6028 C.ar    1  ZINC000518234532    0.0800
     20 C20        -7.7821    1.6688   52.1305 C.ar    1  ZINC000518234532    0.0600
     21 C21        -8.8044    2.5898   52.3051 C.ar    1  ZINC000518234532   -0.0800
     22 C22        -9.9735    2.2145   52.9409 C.ar    1  ZINC000518234532   -0.0800
     23 Br23      -11.3658    3.4722   53.1763 Br      1  ZINC000518234532   -0.0300
     24 O24        -6.6417    2.0496   51.4924 O.3     1  ZINC000518234532   -0.3000
     25 C25        -5.4958    1.2090   51.6657 C.3     1  ZINC000518234532    0.0200
     26 C26        -5.9352   -0.2486   51.4717 C.3     1  ZINC000518234532    0.0200
     27 O27        -6.9401   -0.5474   52.4466 O.3     1  ZINC000518234532   -0.3000
     28 H28       -13.2191   -0.5257   53.6293 H       1  ZINC000518234532    0.0700
     29 H29       -12.5340    0.4146   52.2822 H       1  ZINC000518234532    0.0700
     30 H30       -11.7808   -1.1233   52.7676 H       1  ZINC000518234532    0.0600
     31 H31       -10.2545   -0.8640   55.2458 H       1  ZINC000518234532    0.4000
     32 H32        -9.8217   -2.1282   56.5340 H       1  ZINC000518234532    0.0700
     33 H33       -10.5078   -3.1552   57.8158 H       1  ZINC000518234532    0.0700
     34 H34       -11.2946   -3.0774   56.2211 H       1  ZINC000518234532    0.0700
     35 H35       -13.6659   -2.5342   56.1857 H       1  ZINC000518234532    0.1300
     36 H36       -15.7513   -3.3937   57.1723 H       1  ZINC000518234532    0.1300
     37 H37       -16.1382   -3.2038   59.5959 H       1  ZINC000518234532    0.1300
     38 H38       -14.4393   -2.1538   61.0360 H       1  ZINC000518234532    0.1400
     39 H39        -9.2267   -1.0074   53.6097 H       1  ZINC000518234532    0.1400
     40 H40        -8.6886    3.5999   51.9409 H       1  ZINC000518234532    0.1500
     41 H41        -4.7366    1.4656   50.9268 H       1  ZINC000518234532    0.1300
     42 H42        -5.0918    1.3407   52.6695 H       1  ZINC000518234532    0.0800
     43 H43        -6.3447   -0.3788   50.4700 H       1  ZINC000518234532    0.0800
     44 H44        -5.0809   -0.9114   51.6091 H       1  ZINC000518234532    0.1300
@<TRIPOS>BOND
     1     1     2    1
     2     1    28    1
     3     1    29    1
     4     1    30    1
     5     2     3    1
     6     2     4    1
     7     2    17    1
     8     4     5   am
     9     4    31    1
    10     5     6    2
    11     5     7    1
    12     7     8    1
    13     7     9    1
    14     7    10    1
    15     9    32    1
    16     9    33    1
    17     9    34    1
    18    10    15   ar
    19    10    11   ar
    20    11    12   ar
    21    11    35    1
    22    12    13   ar
    23    12    36    1
    24    13    14   ar
    25    13    37    1
    26    14    15   ar
    27    14    38    1
    28    15    16    1
    29    17    22   ar
    30    17    18   ar
    31    18    19   ar
    32    18    39    1
    33    19    27    1
    34    19    20   ar
    35    20    21   ar
    36    20    24    1
    37    21    22   ar
    38    21    40    1
    39    22    23    1
    40    24    25    1
    41    25    26    1
    42    25    41    1
    43    25    42    1
    44    26    27    1
    45    26    43    1
    46    26    44    1
@<TRIPOS>SUBSTRUCTURE
     1 ZINC000518234532        1 TEMP              0 ****  ****    0 ROOT


##########                                Name:    ZINC001009116151
##########                DOCK_Rotatable_Bonds:                   6
##########                         Heavy_Atoms:                  25
##########                    Molecular_Weight:             342.481
##########                DOCK_Rotatable_Bonds:                   6
##########                       Formal_Charge:           0.0600006
##########                     HBond_Acceptors:                   4
##########                        HBond_Donors:                   1
##########                         Heavy_Atoms:                  25
##########                          Grid_Score:          -28.567778
##########                     Grid_vdw_energy:          -26.885307
##########                      Grid_es_energy:           -1.682470
##########           Internal_energy_repulsive:           10.300708

@<TRIPOS>MOLECULE
ZINC001009116151
 55 59 1 0 0
SMALL
USER_CHARGES


@<TRIPOS>ATOM
      1 O1         -8.7676    2.6366   54.5323 O.2     1  ZINC001009116151   -0.5400
      2 C2         -7.7944    3.3262   54.3125 C.2     1  ZINC001009116151    0.5200
      3 N3         -7.4468    4.2974   55.1800 N.am    1  ZINC001009116151   -0.7300
      4 C4         -8.2480    4.5240   56.3853 C.3     1  ZINC001009116151    0.1500
      5 C5         -7.7729    3.5868   57.4974 C.3     1  ZINC001009116151   -0.1200
      6 H6         -6.7075    3.3562   57.4938 H       1  ZINC001009116151    0.1100
      7 C7         -8.7318    2.4824   57.9465 C.3     1  ZINC001009116151   -0.1700
      8 H8         -9.6809    2.3509   57.4271 H       1  ZINC001009116151    0.1200
      9 C9         -8.1403    1.2579   58.6774 C.3     1  ZINC001009116151    0.1300
     10 N10        -8.1096    1.6534   60.1048 N.am    1  ZINC001009116151   -0.6200
     11 C11        -8.3964    0.8927   61.1798 C.2     1  ZINC001009116151    0.5500
     12 O12        -8.7251   -0.2654   61.0329 O.2     1  ZINC001009116151   -0.5300
     13 C13        -8.3086    1.4813   62.5643 C.3     1  ZINC001009116151   -0.1200
     14 C14        -9.7099    1.8623   63.0955 C.3     1  ZINC001009116151   -0.0900
     15 C15       -10.1666    0.6523   63.8769 C.2     1  ZINC001009116151   -0.1800
     16 C16        -9.1636   -0.1374   64.1489 C.2     1  ZINC001009116151   -0.1500
     17 C17        -7.8708    0.4143   63.5944 C.3     1  ZINC001009116151   -0.0900
     18 C18        -7.6922    3.0747   60.0824 C.3     1  ZINC001009116151    0.1200
     19 C19        -8.4658    3.6975   58.8569 C.3     1  ZINC001009116151   -0.1600
     20 H20        -9.2088    4.4669   59.0667 H       1  ZINC001009116151    0.1300
     21 C21        -6.9702    3.0931   53.0725 C.3     1  ZINC001009116151   -0.0700
     22 C22        -7.5150    3.9514   51.9291 C.3     1  ZINC001009116151   -0.1100
     23 C23        -6.6782    3.7147   50.6703 C.3     1  ZINC001009116151   -0.1100
     24 C24        -5.5755    2.6986   50.9745 C.3     1  ZINC001009116151   -0.0900
     25 C25        -4.6779    3.2386   52.0896 C.3     1  ZINC001009116151   -0.1100
     26 C26        -5.5146    3.4753   53.3484 C.3     1  ZINC001009116151   -0.0900
     27 C27        -6.2073    1.3791   51.4225 C.3     1  ZINC001009116151   -0.1100
     28 C28        -7.0442    1.6159   52.6814 C.3     1  ZINC001009116151   -0.1000
     29 H29        -6.6662    4.8463   55.0062 H       1  ZINC001009116151    0.4000
     30 H30        -8.1334    5.5587   56.7085 H       1  ZINC001009116151    0.0800
     31 H31        -9.2973    4.3259   56.1667 H       1  ZINC001009116151    0.0700
     32 H32        -8.7801    0.3865   58.5382 H       1  ZINC001009116151    0.0900
     33 H33        -7.1320    1.0514   58.3185 H       1  ZINC001009116151    0.0800
     34 H34        -7.6367    2.3395   62.5804 H       1  ZINC001009116151    0.1100
     35 H35        -9.6449    2.7332   63.7478 H       1  ZINC001009116151    0.0900
     36 H36       -10.3900    2.0577   62.2664 H       1  ZINC001009116151    0.0800
     37 H37       -11.1886    0.4656   64.1718 H       1  ZINC001009116151    0.1300
     38 H38        -9.2467   -1.0633   64.6986 H       1  ZINC001009116151    0.1300
     39 H39        -7.3004   -0.3749   63.1044 H       1  ZINC001009116151    0.0900
     40 H40        -7.2817    0.8724   64.3888 H       1  ZINC001009116151    0.0900
     41 H41        -7.9940    3.5739   61.0032 H       1  ZINC001009116151    0.0900
     42 H42        -6.6140    3.1519   59.9429 H       1  ZINC001009116151    0.0800
     43 H43        -8.5520    3.6790   51.7326 H       1  ZINC001009116151    0.0700
     44 H44        -7.4623    5.0038   52.2079 H       1  ZINC001009116151    0.0700
     45 H45        -7.3178    3.3299   49.8759 H       1  ZINC001009116151    0.0700
     46 H46        -6.2281    4.6547   50.3512 H       1  ZINC001009116151    0.0700
     47 H47        -4.9794    2.5300   50.0777 H       1  ZINC001009116151    0.0700
     48 H48        -3.8922    2.5147   52.3063 H       1  ZINC001009116151    0.0700
     49 H49        -4.2277    4.1787   51.7704 H       1  ZINC001009116151    0.0700
     50 H50        -5.4619    4.5278   53.6271 H       1  ZINC001009116151    0.0700
     51 H51        -5.1265    2.8639   54.1630 H       1  ZINC001009116151    0.0700
     52 H52        -6.8470    0.9943   50.6281 H       1  ZINC001009116151    0.0700
     53 H53        -5.4218    0.6552   51.6393 H       1  ZINC001009116151    0.0700
     54 H54        -6.6560    1.0043   53.4959 H       1  ZINC001009116151    0.0700
     55 H55        -8.0811    1.3434   52.4849 H       1  ZINC001009116151    0.0700
@<TRIPOS>BOND
     1     1     2    2
     2     2     3   am
     3     2    21    1
     4     3     4    1
     5     3    29    1
     6     4     5    1
     7     4    30    1
     8     4    31    1
     9     5     6    1
    10     5    19    1
    11     5     7    1
    12     7     8    1
    13     7    19    1
    14     7     9    1
    15     9    10    1
    16     9    32    1
    17     9    33    1
    18    10    11   am
    19    10    18    1
    20    11    12    2
    21    11    13    1
    22    13    17    1
    23    13    14    1
    24    13    34    1
    25    14    15    1
    26    14    35    1
    27    14    36    1
    28    15    16    2
    29    15    37    1
    30    16    17    1
    31    16    38    1
    32    17    39    1
    33    17    40    1
    34    18    19    1
    35    18    41    1
    36    18    42    1
    37    19    20    1
    38    21    26    1
    39    21    28    1
    40    21    22    1
    41    22    23    1
    42    22    43    1
    43    22    44    1
    44    23    24    1
    45    23    45    1
    46    23    46    1
    47    24    25    1
    48    24    27    1
    49    24    47    1
    50    25    26    1
    51    25    48    1
    52    25    49    1
    53    26    50    1
    54    26    51    1
    55    27    28    1
    56    27    52    1
    57    27    53    1
    58    28    54    1
    59    28    55    1
@<TRIPOS>SUBSTRUCTURE
     1 ZINC001009116151        1 TEMP              0 ****  ****    0 ROOT


##########                                Name:    ZINC000062882109
##########                DOCK_Rotatable_Bonds:                   8
##########                         Heavy_Atoms:                  31
##########                    Molecular_Weight:             424.497
##########                DOCK_Rotatable_Bonds:                   8
##########                       Formal_Charge:           0.0299993
##########                     HBond_Acceptors:                   7
##########                        HBond_Donors:                   1
##########                         Heavy_Atoms:                  31
##########                          Grid_Score:          -28.545023
##########                     Grid_vdw_energy:          -27.451355
##########                      Grid_es_energy:           -1.093669
##########           Internal_energy_repulsive:          192.424026

@<TRIPOS>MOLECULE
ZINC000062882109
 59 61 1 0 0
SMALL
USER_CHARGES


@<TRIPOS>ATOM
      1 C1         -9.9524    3.6558   67.2461 C.3     1  ZINC000062882109   -0.2000
      2 C2         -9.7691    3.5620   65.7532 C.2     1  ZINC000062882109    0.3900
      3 O3        -10.2216    4.4248   65.0313 O.2     1  ZINC000062882109   -0.4500
      4 C4         -9.0406    2.4231   65.1713 C.ar    1  ZINC000062882109   -0.1300
      5 C5         -8.5164    1.4270   66.0011 C.ar    1  ZINC000062882109   -0.1100
      6 C6         -7.8343    0.3616   65.4513 C.ar    1  ZINC000062882109   -0.0900
      7 C7         -7.6667    0.2743   64.0814 C.ar    1  ZINC000062882109   -0.1800
      8 C8         -8.1831    1.2584   63.2482 C.ar    1  ZINC000062882109    0.1200
      9 O9         -8.0144    1.1661   61.9027 O.3     1  ZINC000062882109   -0.2800
     10 C10        -8.7256    2.1052   61.0939 C.3     1  ZINC000062882109    0.0700
     11 H11        -8.5579    3.1128   61.4742 H       1  ZINC000062882109    0.1000
     12 C12       -10.2213    1.7860   61.1375 C.3     1  ZINC000062882109   -0.1800
     13 C13        -8.2344    2.0168   59.6719 C.2     1  ZINC000062882109    0.5200
     14 O14        -7.9804    0.9358   59.1841 O.2     1  ZINC000062882109   -0.4900
     15 N15        -8.0773    3.1390   58.9422 N.am    1  ZINC000062882109   -0.6600
     16 C16        -7.6207    3.0569   57.6202 C.ar    1  ZINC000062882109    0.1400
     17 C17        -6.4025    3.6227   57.2692 C.ar    1  ZINC000062882109   -0.1000
     18 C18        -5.9494    3.5453   55.9662 C.ar    1  ZINC000062882109   -0.1100
     19 C19        -6.7100    2.9017   55.0015 C.ar    1  ZINC000062882109    0.0800
     20 O20        -6.2572    2.8398   53.7207 O.3     1  ZINC000062882109   -0.3100
     21 C21        -6.8060    1.8318   52.8684 C.3     1  ZINC000062882109    0.0500
     22 C22        -8.3374    1.8810   52.9662 C.3     1  ZINC000062882109    0.0400
     23 N23        -8.7000    1.6736   54.3786 N.am    1  ZINC000062882109   -0.5500
     24 C24        -9.7338    0.8807   54.7240 C.2     1  ZINC000062882109    0.5300
     25 O25       -10.0141    0.7248   55.8937 O.2     1  ZINC000062882109   -0.5100
     26 C26       -10.5414    0.1881   53.6567 C.3     1  ZINC000062882109   -0.0800
     27 C27       -11.7366   -0.5184   54.2995 C.3     1  ZINC000062882109   -0.1300
     28 C28       -11.0430    1.2211   52.6456 C.3     1  ZINC000062882109   -0.1600
     29 C29        -9.6645   -0.8416   52.9413 C.3     1  ZINC000062882109   -0.1500
     30 C30        -7.9304    2.3308   55.3539 C.ar    1  ZINC000062882109    0.1000
     31 C31        -8.3834    2.4045   56.6605 C.ar    1  ZINC000062882109   -0.1400
     32 C32        -8.8747    2.3294   63.7864 C.ar    1  ZINC000062882109   -0.0900
     33 H33       -10.5118    4.5597   67.4873 H       1  ZINC000062882109    0.0900
     34 H34       -10.5015    2.7833   67.6002 H       1  ZINC000062882109    0.1000
     35 H35        -8.9766    3.6923   67.7304 H       1  ZINC000062882109    0.1000
     36 H36        -8.6450    1.4921   67.0714 H       1  ZINC000062882109    0.1400
     37 H37        -7.4295   -0.4070   66.0929 H       1  ZINC000062882109    0.1300
     38 H38        -7.1317   -0.5626   63.6574 H       1  ZINC000062882109    0.1300
     39 H39       -10.5766    1.8499   62.1660 H       1  ZINC000062882109    0.0800
     40 H40       -10.7639    2.5024   60.5205 H       1  ZINC000062882109    0.0800
     41 H41       -10.3891    0.7784   60.7571 H       1  ZINC000062882109    0.0800
     42 H42        -8.2805    4.0036   59.3323 H       1  ZINC000062882109    0.4100
     43 H43        -5.8071    4.1252   58.0171 H       1  ZINC000062882109    0.1400
     44 H44        -5.0012    3.9874   55.6982 H       1  ZINC000062882109    0.1400
     45 H45        -6.4995    2.0173   51.8390 H       1  ZINC000062882109    0.1300
     46 H46        -6.4509    0.8516   53.1863 H       1  ZINC000062882109    0.0700
     47 H47        -8.6985    2.8531   52.6305 H       1  ZINC000062882109    0.0900
     48 H48        -8.7727    1.0920   52.3529 H       1  ZINC000062882109    0.1300
     49 H49       -12.3613    0.2151   54.8091 H       1  ZINC000062882109    0.0600
     50 H50       -12.3207   -1.0194   53.5275 H       1  ZINC000062882109    0.0700
     51 H51       -11.3793   -1.2544   55.0197 H       1  ZINC000062882109    0.0700
     52 H52       -10.1916    1.7244   52.1877 H       1  ZINC000062882109    0.0700
     53 H53       -11.6271    0.7201   51.8737 H       1  ZINC000062882109    0.0800
     54 H54       -11.6677    1.9546   53.1552 H       1  ZINC000062882109    0.0600
     55 H55        -9.4706   -1.6806   53.6096 H       1  ZINC000062882109    0.0700
     56 H56       -10.1784   -1.1991   52.0490 H       1  ZINC000062882109    0.0800
     57 H57        -8.7200   -0.3787   52.6557 H       1  ZINC000062882109    0.0700
     58 H58        -9.3295    1.9598   56.9314 H       1  ZINC000062882109    0.1800
     59 H59        -9.2770    3.0950   63.1394 H       1  ZINC000062882109    0.1400
@<TRIPOS>BOND
     1     1     2    1
     2     1    33    1
     3     1    34    1
     4     1    35    1
     5     2     3    2
     6     2     4    1
     7     4    32   ar
     8     4     5   ar
     9     5     6   ar
    10     5    36    1
    11     6     7   ar
    12     6    37    1
    13     7     8   ar
    14     7    38    1
    15     8     9    1
    16     8    32   ar
    17     9    10    1
    18    10    11    1
    19    10    12    1
    20    10    13    1
    21    12    39    1
    22    12    40    1
    23    12    41    1
    24    13    14    2
    25    13    15   am
    26    15    16    1
    27    15    42    1
    28    16    31   ar
    29    16    17   ar
    30    17    18   ar
    31    17    43    1
    32    18    19   ar
    33    18    44    1
    34    19    30   ar
    35    19    20    1
    36    20    21    1
    37    21    22    1
    38    21    45    1
    39    21    46    1
    40    22    23    1
    41    22    47    1
    42    22    48    1
    43    23    24   am
    44    23    30    1
    45    24    25    2
    46    24    26    1
    47    26    27    1
    48    26    28    1
    49    26    29    1
    50    27    49    1
    51    27    50    1
    52    27    51    1
    53    28    52    1
    54    28    53    1
    55    28    54    1
    56    29    55    1
    57    29    56    1
    58    29    57    1
    59    30    31   ar
    60    31    58    1
    61    32    59    1
@<TRIPOS>SUBSTRUCTURE
     1 ZINC000062882109        1 TEMP              0 ****  ****    0 ROOT


##########                                Name:    ZINC000285228948
##########                DOCK_Rotatable_Bonds:                   8
##########                         Heavy_Atoms:                  23
##########                    Molecular_Weight:             339.822
##########                DOCK_Rotatable_Bonds:                   8
##########                       Formal_Charge:           0.0299997
##########                     HBond_Acceptors:                   7
##########                        HBond_Donors:                   3
##########                         Heavy_Atoms:                  23
##########                          Grid_Score:          -28.495876
##########                     Grid_vdw_energy:          -27.301849
##########                      Grid_es_energy:           -1.194026
##########           Internal_energy_repulsive:           23.539660

@<TRIPOS>MOLECULE
ZINC000285228948
 45 46 1 0 0
SMALL
USER_CHARGES


@<TRIPOS>ATOM
      1 C1        -11.9981   -0.1330   52.9133 C.3     1  <0>        -0.1600
      2 C2        -10.8301   -0.6370   53.7636 C.3     1  <0>         0.1800
      3 H3        -10.4367   -1.5571   53.3315 H       1  <0>         0.1100
      4 C4        -11.3096   -0.9058   55.1667 C.ar    1  <0>        -0.0900
      5 C5        -12.2772   -0.0970   55.7331 C.ar    1  <0>        -0.1000
      6 C6        -12.7173   -0.3430   57.0199 C.ar    1  <0>        -0.1100
      7 C7        -12.1893   -1.3988   57.7414 C.ar    1  <0>        -0.0300
      8 Cl8       -12.7420   -1.7088   59.3576 Cl      1  <0>        -0.0700
      9 C9        -11.2209   -2.2079   57.1741 C.ar    1  <0>        -0.1100
     10 C10       -10.7857   -1.9644   55.8850 C.ar    1  <0>        -0.0900
     11 N11        -9.7746    0.3785   53.7942 N.am    1  <0>        -0.6100
     12 C12       -10.0093    1.6589   54.4663 C.3     1  <0>         0.0600
     13 C13        -8.5876    0.1347   53.2042 C.2     1  <0>         0.5200
     14 O14        -8.3928   -0.9261   52.6492 O.2     1  <0>        -0.5200
     15 C15        -7.5024    1.1798   53.2342 C.3     1  <0>         0.0300
     16 N16        -7.5453    1.9660   51.9941 N.3     1  <0>        -0.4900
     17 C17        -6.4318    1.5892   51.0862 C.3     1  <0>         0.0400
     18 C18        -6.3141    2.8124   50.1426 C.3     1  <0>        -0.1400
     19 C19        -6.5891    4.0051   51.0870 C.3     1  <0>         0.1100
     20 O20        -5.3584    4.5752   51.5374 O.3     1  <0>        -0.5400
     21 C21        -7.4211    5.0472   50.3851 C.2     1  <0>         0.5000
     22 N22        -8.6457    4.7304   49.9196 N.am    1  <0>        -0.8500
     23 O23        -6.9889    6.1710   50.2391 O.2     1  <0>        -0.5200
     24 C24        -7.3672    3.4074   52.2739 C.3     1  <0>         0.0600
     25 H25       -12.7834   -0.8885   52.8905 H       1  <0>         0.0700
     26 H26       -12.3915    0.7872   53.3454 H       1  <0>         0.0600
     27 H27       -11.6513    0.0614   51.8984 H       1  <0>         0.0700
     28 H28       -12.6890    0.7274   55.1700 H       1  <0>         0.1400
     29 H29       -13.4730    0.2892   57.4624 H       1  <0>         0.1300
     30 H30       -10.8082   -3.0321   57.7368 H       1  <0>         0.1400
     31 H31       -10.0301   -2.5961   55.4419 H       1  <0>         0.1300
     32 H32        -9.7516    1.5680   55.5214 H       1  <0>         0.0600
     33 H33        -9.3907    2.4295   54.0062 H       1  <0>         0.0800
     34 H34       -11.0602    1.9319   54.3711 H       1  <0>         0.0800
     35 H35        -7.6568    1.8395   54.0882 H       1  <0>         0.1100
     36 H36        -6.5313    0.6928   53.3223 H       1  <0>         0.0700
     37 H37        -5.5087    1.4466   51.6481 H       1  <0>         0.0400
     38 H38        -6.6827    0.6908   50.5220 H       1  <0>         0.1200
     39 H39        -5.3117    2.8784   49.7197 H       1  <0>         0.0900
     40 H40        -7.0645    2.7644   49.3535 H       1  <0>         0.0900
     41 H41        -4.7217    3.9262   51.8669 H       1  <0>         0.3800
     42 H42        -9.1808    5.4008   49.4668 H       1  <0>         0.4000
     43 H43        -8.9918    3.8319   50.0375 H       1  <0>         0.4100
     44 H44        -8.3398    3.8916   52.3619 H       1  <0>         0.1100
     45 H45        -6.7990    3.5395   53.1947 H       1  <0>         0.0700
@<TRIPOS>BOND
     1     1     2    1
     2     1    25    1
     3     1    26    1
     4     1    27    1
     5     2     3    1
     6     2     4    1
     7     2    11    1
     8     4    10   ar
     9     4     5   ar
    10     5     6   ar
    11     5    28    1
    12     6     7   ar
    13     6    29    1
    14     7     8    1
    15     7     9   ar
    16     9    10   ar
    17     9    30    1
    18    10    31    1
    19    11    12    1
    20    11    13   am
    21    12    32    1
    22    12    33    1
    23    12    34    1
    24    13    14    2
    25    13    15    1
    26    15    16    1
    27    15    35    1
    28    15    36    1
    29    16    24    1
    30    16    17    1
    31    17    18    1
    32    17    37    1
    33    17    38    1
    34    18    19    1
    35    18    39    1
    36    18    40    1
    37    19    20    1
    38    19    21    1
    39    19    24    1
    40    20    41    1
    41    21    22   am
    42    21    23    2
    43    22    42    1
    44    22    43    1
    45    24    44    1
    46    24    45    1
@<TRIPOS>SUBSTRUCTURE
     1 <0>         1 TEMP              0 ****  ****    0 ROOT


##########                                Name:    ZINC000477589488
##########                DOCK_Rotatable_Bonds:                   6
##########                         Heavy_Atoms:                  32
##########                    Molecular_Weight:             423.517
##########                DOCK_Rotatable_Bonds:                   6
##########                       Formal_Charge:        -8.19564e-07
##########                     HBond_Acceptors:                   6
##########                        HBond_Donors:                   1
##########                         Heavy_Atoms:                  32
##########                          Grid_Score:          -28.477234
##########                     Grid_vdw_energy:          -27.543577
##########                      Grid_es_energy:           -0.933657
##########           Internal_energy_repulsive:           18.786194

@<TRIPOS>MOLECULE
ZINC000477589488
 57 61 1 0 0
SMALL
USER_CHARGES


@<TRIPOS>ATOM
      1 O1        -11.2503    0.8252   56.0532 O.2     1  ZINC000477589488   -0.5800
      2 C2        -10.2368    1.4599   56.2731 C.2     1  ZINC000477589488    0.7100
      3 N3         -9.3674    1.7090   55.2738 N.am    1  ZINC000477589488   -0.7400
      4 C4         -9.6406    1.2098   53.9239 C.3     1  ZINC000477589488    0.2500
      5 H5        -10.2332    0.2971   53.9869 H       1  ZINC000477589488    0.1100
      6 C6         -8.3388    0.9162   53.2238 C.ar    1  ZINC000477589488   -0.0900
      7 C7         -7.3263    1.8574   53.2244 C.ar    1  ZINC000477589488   -0.1000
      8 C8         -6.1321    1.5881   52.5822 C.ar    1  ZINC000477589488   -0.1200
      9 C9         -5.9503    0.3775   51.9399 C.ar    1  ZINC000477589488   -0.1200
     10 C10        -6.9625   -0.5638   51.9401 C.ar    1  ZINC000477589488   -0.1200
     11 C11        -8.1552   -0.2963   52.5860 C.ar    1  ZINC000477589488   -0.1000
     12 C12       -10.4044    2.2518   53.1480 C.ar    1  ZINC000477589488   -0.0700
     13 C13       -11.3849    1.8633   52.2197 C.ar    1  ZINC000477589488   -0.0400
     14 C14       -11.6779    0.5078   51.9917 C.ar    1  ZINC000477589488   -0.1100
     15 C15       -12.6344    0.1689   51.0850 C.ar    1  ZINC000477589488   -0.1100
     16 C16       -13.3301    1.1469   50.3762 C.ar    1  ZINC000477589488   -0.1100
     17 C17       -13.0731    2.4691   50.5703 C.ar    1  ZINC000477589488   -0.1100
     18 C18       -12.0927    2.8579   51.4992 C.ar    1  ZINC000477589488   -0.0500
     19 C19       -11.8000    4.2130   51.7271 C.ar    1  ZINC000477589488   -0.1000
     20 C20       -10.8441    4.5521   52.6351 C.ar    1  ZINC000477589488   -0.1100
     21 C21       -10.1518    3.5746   53.3469 C.ar    1  ZINC000477589488   -0.1100
     22 N22        -9.9855    1.9191   57.5151 N.am    1  ZINC000477589488   -0.6300
     23 C23       -10.9178    1.6534   58.6212 C.3     1  ZINC000477589488    0.1300
     24 C24       -10.1256    1.0700   59.7961 C.3     1  ZINC000477589488    0.0500
     25 N25        -9.0111    1.9685   60.1253 N.3     1  ZINC000477589488   -0.4700
     26 C26        -8.3666    1.5582   61.2871 C.ar    1  ZINC000477589488    0.2500
     27 C27        -7.9585    2.4992   62.2315 C.ar    1  ZINC000477589488   -0.1300
     28 C28        -7.3203    2.0387   63.3725 C.ar    1  ZINC000477589488   -0.0900
     29 C29        -7.1270    0.6709   63.5049 C.ar    1  ZINC000477589488    0.0200
     30 N30        -7.5459   -0.1486   62.5610 N.ar    1  ZINC000477589488   -0.2200
     31 N31        -8.1423    0.2703   61.5046 N.ar    1  ZINC000477589488   -0.2800
     32 C32        -8.0639    2.0746   59.0074 C.3     1  ZINC000477589488    0.0400
     33 C33        -8.7686    2.6940   57.8015 C.3     1  ZINC000477589488    0.1200
     34 H34        -8.5610    2.2188   55.4484 H       1  ZINC000477589488    0.3900
     35 H35        -7.4682    2.8030   53.7262 H       1  ZINC000477589488    0.1100
     36 H36        -5.3412    2.3236   52.5821 H       1  ZINC000477589488    0.1200
     37 H37        -5.0176    0.1675   51.4376 H       1  ZINC000477589488    0.1200
     38 H38        -6.8207   -1.5094   51.4380 H       1  ZINC000477589488    0.1200
     39 H39        -8.9460   -1.0318   52.5861 H       1  ZINC000477589488    0.1200
     40 H40       -11.1465   -0.2610   52.5331 H       1  ZINC000477589488    0.1300
     41 H41       -12.8576   -0.8735   50.9118 H       1  ZINC000477589488    0.1300
     42 H42       -14.0843    0.8508   49.6620 H       1  ZINC000477589488    0.1300
     43 H43       -13.6197    3.2157   50.0133 H       1  ZINC000477589488    0.1300
     44 H44       -12.3303    4.9816   51.1846 H       1  ZINC000477589488    0.1300
     45 H45       -10.6207    5.5945   52.8081 H       1  ZINC000477589488    0.1300
     46 H46        -9.3983    3.8706   54.0618 H       1  ZINC000477589488    0.1200
     47 H47       -11.3963    2.5835   58.9281 H       1  ZINC000477589488    0.0800
     48 H48       -11.6744    0.9382   58.2986 H       1  ZINC000477589488    0.1100
     49 H49       -10.7800    0.9698   60.6620 H       1  ZINC000477589488    0.1000
     50 H50        -9.7342    0.0908   59.5202 H       1  ZINC000477589488    0.0600
     51 H51        -8.1337    3.5539   62.0786 H       1  ZINC000477589488    0.1500
     52 H52        -6.9831    2.7242   64.1359 H       1  ZINC000477589488    0.1500
     53 H53        -6.6330    0.2778   64.3810 H       1  ZINC000477589488    0.1700
     54 H54        -7.2232    2.7029   59.3013 H       1  ZINC000477589488    0.1000
     55 H55        -7.7012    1.0814   58.7425 H       1  ZINC000477589488    0.0600
     56 H56        -8.1050    2.6693   56.9372 H       1  ZINC000477589488    0.0800
     57 H57        -9.0426    3.7245   58.0271 H       1  ZINC000477589488    0.0900
@<TRIPOS>BOND
     1     1     2    2
     2     2     3   am
     3     2    22   am
     4     3     4    1
     5     3    34    1
     6     4     5    1
     7     4     6    1
     8     4    12    1
     9     6    11   ar
    10     6     7   ar
    11     7     8   ar
    12     7    35    1
    13     8     9   ar
    14     8    36    1
    15     9    10   ar
    16     9    37    1
    17    10    11   ar
    18    10    38    1
    19    11    39    1
    20    12    21   ar
    21    12    13   ar
    22    13    18   ar
    23    13    14   ar
    24    14    15   ar
    25    14    40    1
    26    15    16   ar
    27    15    41    1
    28    16    17   ar
    29    16    42    1
    30    17    18   ar
    31    17    43    1
    32    18    19   ar
    33    19    20   ar
    34    19    44    1
    35    20    21   ar
    36    20    45    1
    37    21    46    1
    38    22    33    1
    39    22    23    1
    40    23    24    1
    41    23    47    1
    42    23    48    1
    43    24    25    1
    44    24    49    1
    45    24    50    1
    46    25    26    1
    47    25    32    1
    48    26    31   ar
    49    26    27   ar
    50    27    28   ar
    51    27    51    1
    52    28    29   ar
    53    28    52    1
    54    29    30   ar
    55    29    53    1
    56    30    31   ar
    57    32    33    1
    58    32    54    1
    59    32    55    1
    60    33    56    1
    61    33    57    1
@<TRIPOS>SUBSTRUCTURE
     1 ZINC000477589488        1 TEMP              0 ****  ****    0 ROOT


##########                                Name:    ZINC000192150625
##########                DOCK_Rotatable_Bonds:                   5
##########                         Heavy_Atoms:                  28
##########                    Molecular_Weight:             377.443
##########                DOCK_Rotatable_Bonds:                   5
##########                       Formal_Charge:           0.0199997
##########                     HBond_Acceptors:                   6
##########                        HBond_Donors:                   1
##########                         Heavy_Atoms:                  28
##########                          Grid_Score:          -28.474388
##########                     Grid_vdw_energy:          -26.699194
##########                      Grid_es_energy:           -1.775193
##########           Internal_energy_repulsive:           12.555491

@<TRIPOS>MOLECULE
ZINC000192150625
 51 54 1 0 0
SMALL
USER_CHARGES


@<TRIPOS>ATOM
      1 C1        -15.8729    0.2575   47.1634 C.3     1  ZINC000192150625   -0.0800
      2 C2        -15.1501    0.3706   48.4809 C.2     1  ZINC000192150625    0.0400
      3 C3        -14.1056    1.1762   48.7158 C.2     1  ZINC000192150625   -0.1800
      4 C4        -13.4488    2.1152   47.7371 C.3     1  ZINC000192150625   -0.0800
      5 C5        -13.7295    0.9604   50.1184 C.ar    1  ZINC000192150625   -0.1000
      6 C6        -12.7445    1.4844   50.9530 C.ar    1  ZINC000192150625   -0.0700
      7 C7        -12.6611    1.0520   52.2654 C.ar    1  ZINC000192150625    0.1200
      8 N8        -11.6757    1.5726   53.1108 N.am    1  ZINC000192150625   -0.6400
      9 C9        -10.6207    0.8121   53.4644 C.2     1  ZINC000192150625    0.5100
     10 O10       -10.5256   -0.3246   53.0492 O.2     1  ZINC000192150625   -0.4900
     11 C11        -9.5686    1.3678   54.3670 C.2     1  ZINC000192150625    0.5100
     12 O12        -9.5309    1.0333   55.5330 O.2     1  ZINC000192150625   -0.5200
     13 N13        -8.6611    2.2408   53.8867 N.am    1  ZINC000192150625   -0.5800
     14 C14        -7.6164    2.7914   54.7608 C.3     1  ZINC000192150625    0.0500
     15 C15        -6.2505    2.5457   54.1121 C.3     1  ZINC000192150625   -0.1200
     16 C16        -6.2523    3.1223   52.6945 C.3     1  ZINC000192150625   -0.0500
     17 C17        -4.8991    2.9124   52.0654 C.ar    1  ZINC000192150625   -0.0300
     18 C18        -4.5595    1.6914   51.5031 C.ar    1  ZINC000192150625   -0.1700
     19 C19        -3.3091    1.5360   50.9351 C.ar    1  ZINC000192150625    0.1000
     20 N20        -2.4445    2.5316   50.9249 N.ar    1  ZINC000192150625   -0.4900
     21 C21        -2.7332    3.7062   51.4502 C.ar    1  ZINC000192150625    0.1000
     22 C22        -3.9661    3.9374   52.0302 C.ar    1  ZINC000192150625   -0.1700
     23 C23        -7.3196    2.4156   51.8559 C.3     1  ZINC000192150625   -0.1200
     24 C24        -8.6938    2.6553   52.4775 C.3     1  ZINC000192150625    0.1100
     25 C25       -13.5574    0.0993   52.7458 C.ar    1  ZINC000192150625   -0.1100
     26 C26       -14.5333   -0.4224   51.9257 C.ar    1  ZINC000192150625   -0.0800
     27 C27       -14.6319   -0.0001   50.6058 C.ar    1  ZINC000192150625    0.0500
     28 O28       -15.4638   -0.3177   49.5921 O.3     1  ZINC000192150625   -0.1900
     29 H29       -16.6833   -0.4658   47.2545 H       1  ZINC000192150625    0.0800
     30 H30       -16.2825    1.2295   46.8889 H       1  ZINC000192150625    0.0900
     31 H31       -15.1756   -0.0734   46.3936 H       1  ZINC000192150625    0.0900
     32 H32       -13.9331    3.0905   47.7884 H       1  ZINC000192150625    0.0700
     33 H33       -12.3930    2.2202   47.9867 H       1  ZINC000192150625    0.0700
     34 H34       -13.5455    1.7143   46.7281 H       1  ZINC000192150625    0.0700
     35 H35       -12.0507    2.2225   50.5785 H       1  ZINC000192150625    0.1400
     36 H36       -11.7517    2.4809   53.4426 H       1  ZINC000192150625    0.4300
     37 H37        -7.7731    3.8627   54.8876 H       1  ZINC000192150625    0.0700
     38 H38        -7.6541    2.2972   55.7316 H       1  ZINC000192150625    0.1600
     39 H39        -5.4744    3.0331   54.7022 H       1  ZINC000192150625    0.0800
     40 H40        -6.0560    1.4740   54.0687 H       1  ZINC000192150625    0.0700
     41 H41        -6.4716    4.1892   52.7368 H       1  ZINC000192150625    0.0900
     42 H42        -5.2631    0.8721   51.5090 H       1  ZINC000192150625    0.1300
     43 H43        -3.0369    0.5881   50.4950 H       1  ZINC000192150625    0.1600
     44 H44        -1.9991    4.4978   51.4233 H       1  ZINC000192150625    0.1600
     45 H45        -4.1968    4.9017   52.4585 H       1  ZINC000192150625    0.1300
     46 H46        -7.3046    2.8105   50.8399 H       1  ZINC000192150625    0.0800
     47 H47        -7.1150    1.3451   51.8336 H       1  ZINC000192150625    0.0700
     48 H48        -9.4439    2.0735   51.9416 H       1  ZINC000192150625    0.1000
     49 H49        -8.9410    3.7153   52.4201 H       1  ZINC000192150625    0.0800
     50 H50       -13.4858   -0.2335   53.7708 H       1  ZINC000192150625    0.1400
     51 H51       -15.2224   -1.1603   52.3089 H       1  ZINC000192150625    0.1400
@<TRIPOS>BOND
     1     1     2    1
     2     1    29    1
     3     1    30    1
     4     1    31    1
     5     2    28    1
     6     2     3    2
     7     3     4    1
     8     3     5    1
     9     4    32    1
    10     4    33    1
    11     4    34    1
    12     5    27   ar
    13     5     6   ar
    14     6     7   ar
    15     6    35    1
    16     7     8    1
    17     7    25   ar
    18     8     9   am
    19     8    36    1
    20     9    10    2
    21     9    11    1
    22    11    12    2
    23    11    13   am
    24    13    24    1
    25    13    14    1
    26    14    15    1
    27    14    37    1
    28    14    38    1
    29    15    16    1
    30    15    39    1
    31    15    40    1
    32    16    17    1
    33    16    23    1
    34    16    41    1
    35    17    22   ar
    36    17    18   ar
    37    18    19   ar
    38    18    42    1
    39    19    20   ar
    40    19    43    1
    41    20    21   ar
    42    21    22   ar
    43    21    44    1
    44    22    45    1
    45    23    24    1
    46    23    46    1
    47    23    47    1
    48    24    48    1
    49    24    49    1
    50    25    26   ar
    51    25    50    1
    52    26    27   ar
    53    26    51    1
    54    27    28    1
@<TRIPOS>SUBSTRUCTURE
     1 ZINC000192150625        1 TEMP              0 ****  ****    0 ROOT


##########                                Name:    ZINC001345966764
##########                DOCK_Rotatable_Bonds:                  10
##########                         Heavy_Atoms:                  22
##########                    Molecular_Weight:             333.258
##########                DOCK_Rotatable_Bonds:                  10
##########                       Formal_Charge:           0.0099997
##########                     HBond_Acceptors:                  11
##########                        HBond_Donors:                   4
##########                         Heavy_Atoms:                  22
##########                          Grid_Score:          -28.465933
##########                     Grid_vdw_energy:          -26.667522
##########                      Grid_es_energy:           -1.798410
##########           Internal_energy_repulsive:            4.290438

@<TRIPOS>MOLECULE
ZINC001345966764
 38 38 1 0 0
SMALL
USER_CHARGES


@<TRIPOS>ATOM
      1 N1        -15.7252   -3.9060   57.7121 N.3     1  ZINC001345966764   -0.8400
      2 C2        -15.3899   -2.8939   56.7014 C.3     1  ZINC001345966764    0.0200
      3 C3        -14.6290   -1.7439   57.3642 C.3     1  ZINC001345966764    0.2800
      4 F4        -14.9810   -0.5369   56.7506 F       1  ZINC001345966764   -0.1900
      5 F5        -14.9574   -1.6893   58.7231 F       1  ZINC001345966764   -0.1800
      6 C6        -13.1241   -1.9736   57.2121 C.3     1  ZINC001345966764    0.0800
      7 N7        -12.6810   -1.4625   55.9125 N.am    1  ZINC001345966764   -0.7000
      8 C8        -11.3681   -1.2706   55.6760 C.2     1  ZINC001345966764    0.5100
      9 O9        -10.5531   -1.5195   56.5399 O.2     1  ZINC001345966764   -0.5100
     10 C10       -10.9159   -0.7509   54.3496 C.2     1  ZINC001345966764    0.5100
     11 O11       -11.5912   -0.9441   53.3601 O.2     1  ZINC001345966764   -0.5100
     12 N12        -9.7582   -0.0678   54.2527 N.am    1  ZINC001345966764   -0.7000
     13 C13        -9.3158    0.4431   52.9528 C.3     1  ZINC001345966764    0.1200
     14 C14        -7.8227    0.7713   53.0151 C.3     1  ZINC001345966764    0.0600
     15 H15        -7.5253    0.9891   54.0408 H       1  ZINC001345966764    0.0900
     16 C16        -6.9904   -0.4015   52.4513 C.3     1  ZINC001345966764   -0.1400
     17 C17        -5.8299    0.2888   51.7001 C.3     1  ZINC001345966764   -0.1500
     18 C18        -6.0985    1.7970   51.8991 C.3     1  ZINC001345966764    0.0300
     19 H19        -5.5352    2.1733   52.7529 H       1  ZINC001345966764    0.1200
     20 C20        -5.7296    2.5750   50.6344 C.3     1  ZINC001345966764    0.4600
     21 F21        -6.7598    2.4545   49.6955 F       1  ZINC001345966764   -0.1700
     22 F22        -5.5455    3.9244   50.9540 F       1  ZINC001345966764   -0.1700
     23 F23        -4.5461    2.0575   50.0969 F       1  ZINC001345966764   -0.1700
     24 O24        -7.5177    1.8906   52.1548 O.3     1  ZINC001345966764   -0.3500
     25 H25       -16.2755   -3.5051   58.4567 H       1  ZINC001345966764    0.3500
     26 H26       -16.2006   -4.6914   57.2935 H       1  ZINC001345966764    0.3600
     27 H27       -14.7667   -3.3445   55.9289 H       1  ZINC001345966764    0.1100
     28 H28       -16.3065   -2.5118   56.2519 H       1  ZINC001345966764    0.0700
     29 H29       -12.5944   -1.4503   58.0080 H       1  ZINC001345966764    0.1100
     30 H30       -12.9113   -3.0408   57.2746 H       1  ZINC001345966764    0.1100
     31 H31       -13.3324   -1.2623   55.2224 H       1  ZINC001345966764    0.4200
     32 H32        -9.2178    0.0856   55.0434 H       1  ZINC001345966764    0.4200
     33 H33        -9.4901   -0.3127   52.1870 H       1  ZINC001345966764    0.1000
     34 H34        -9.8762    1.3452   52.7072 H       1  ZINC001345966764    0.0900
     35 H35        -6.6059   -1.0212   53.2613 H       1  ZINC001345966764    0.0900
     36 H36        -7.5889   -0.9987   51.7633 H       1  ZINC001345966764    0.0900
     37 H37        -4.8717    0.0103   52.1389 H       1  ZINC001345966764    0.1000
     38 H38        -5.8547    0.0328   50.6409 H       1  ZINC001345966764    0.0900
@<TRIPOS>BOND
     1     1     2    1
     2     1    25    1
     3     1    26    1
     4     2     3    1
     5     2    27    1
     6     2    28    1
     7     3     4    1
     8     3     5    1
     9     3     6    1
    10     6     7    1
    11     6    29    1
    12     6    30    1
    13     7     8   am
    14     7    31    1
    15     8     9    2
    16     8    10    1
    17    10    11    2
    18    10    12   am
    19    12    13    1
    20    12    32    1
    21    13    14    1
    22    13    33    1
    23    13    34    1
    24    14    15    1
    25    14    24    1
    26    14    16    1
    27    16    17    1
    28    16    35    1
    29    16    36    1
    30    17    18    1
    31    17    37    1
    32    17    38    1
    33    18    19    1
    34    18    20    1
    35    18    24    1
    36    20    21    1
    37    20    22    1
    38    20    23    1
@<TRIPOS>SUBSTRUCTURE
     1 ZINC001345966764        1 TEMP              0 ****  ****    0 ROOT


##########                                Name:    ZINC000768148687
##########                DOCK_Rotatable_Bonds:                   8
##########                         Heavy_Atoms:                  25
##########                    Molecular_Weight:             371.307
##########                DOCK_Rotatable_Bonds:                   8
##########                       Formal_Charge:         2.98023e-08
##########                     HBond_Acceptors:                  11
##########                        HBond_Donors:                   0
##########                         Heavy_Atoms:                  25
##########                          Grid_Score:          -28.443001
##########                     Grid_vdw_energy:          -27.777008
##########                      Grid_es_energy:           -0.665993
##########           Internal_energy_repulsive:            7.761184

@<TRIPOS>MOLECULE
ZINC000768148687
 43 44 1 0 0
SMALL
USER_CHARGES


@<TRIPOS>ATOM
      1 C1         -5.0520    2.2796   50.1605 C.3     1  ZINC000768148687   -0.1800
      2 C2         -4.2141    1.5299   51.1981 C.3     1  ZINC000768148687    0.1100
      3 N3         -2.8683    2.1067   51.2483 N.pl3   1  ZINC000768148687   -0.3100
      4 N4         -1.7963    1.7536   50.4211 N.2     1  ZINC000768148687   -0.2000
      5 C5         -0.7563    2.4696   50.7480 C.2     1  ZINC000768148687    0.0200
      6 C6          0.6042    2.4011   50.1034 C.3     1  ZINC000768148687    0.5500
      7 F7          0.5444    1.5766   48.9748 F       1  ZINC000768148687   -0.1600
      8 F8          1.0045    3.6860   49.7215 F       1  ZINC000768148687   -0.1600
      9 F9          1.5265    1.8770   51.0154 F       1  ZINC000768148687   -0.1500
     10 C10        -1.1289    3.3210   51.8129 C.2     1  ZINC000768148687   -0.1800
     11 C11        -0.2641    4.2996   52.4939 C.2     1  ZINC000768148687    0.5300
     12 O12        -0.1989    5.4418   52.0840 O.2     1  ZINC000768148687   -0.4700
     13 O13         0.4548    3.9286   53.5716 O.3     1  ZINC000768148687   -0.3400
     14 C14         0.9323    4.9880   54.4421 C.3     1  ZINC000768148687    0.0200
     15 C15         1.5570    4.3745   55.6967 C.3     1  ZINC000768148687    0.0600
     16 N16         0.5606    3.5407   56.3824 N.3     1  ZINC000768148687   -0.5300
     17 C17        -0.4150    4.3712   57.1033 C.3     1  ZINC000768148687    0.0100
     18 C18        -1.4664    3.4669   57.7520 C.3     1  ZINC000768148687    0.0600
     19 O19        -0.8150    2.5277   58.6116 O.3     1  ZINC000768148687   -0.3800
     20 C20         0.1415    1.7018   57.9421 C.3     1  ZINC000768148687    0.0600
     21 C21         1.2092    2.5882   57.2953 C.3     1  ZINC000768148687    0.0100
     22 C22        -2.4578    3.0670   52.0914 C.2     1  ZINC000768148687    0.0600
     23 C23        -3.2906    3.7375   53.1534 C.3     1  ZINC000768148687    0.3400
     24 F24        -2.7145    3.5135   54.4084 F       1  ZINC000768148687   -0.1700
     25 F25        -3.3451    5.1129   52.9041 F       1  ZINC000768148687   -0.1800
     26 H26        -6.0532    1.8504   50.1232 H       1  ZINC000768148687    0.0900
     27 H27        -5.1178    3.3317   50.4379 H       1  ZINC000768148687    0.0700
     28 H28        -4.5819    2.1908   49.1811 H       1  ZINC000768148687    0.0700
     29 H29        -4.6841    1.6187   52.1776 H       1  ZINC000768148687    0.1100
     30 H30        -4.1483    0.4779   50.9207 H       1  ZINC000768148687    0.1200
     31 H31         1.6807    5.5808   53.9162 H       1  ZINC000768148687    0.0800
     32 H32         0.0971    5.6276   54.7277 H       1  ZINC000768148687    0.0800
     33 H33         2.4118    3.7602   55.4138 H       1  ZINC000768148687    0.1100
     34 H34         1.8866    5.1701   56.3648 H       1  ZINC000768148687    0.0900
     35 H35         0.0965    4.9465   57.8750 H       1  ZINC000768148687    0.0500
     36 H36        -0.9014    5.0512   56.4038 H       1  ZINC000768148687    0.0900
     37 H37        -2.1590    4.0742   58.3348 H       1  ZINC000768148687    0.1000
     38 H38        -2.0143    2.9316   56.9766 H       1  ZINC000768148687    0.0600
     39 H39         0.6118    1.0324   58.6624 H       1  ZINC000768148687    0.1000
     40 H40        -0.3596    1.1151   57.1722 H       1  ZINC000768148687    0.0600
     41 H41         1.9084    1.9666   56.7361 H       1  ZINC000768148687    0.0800
     42 H42         1.7466    3.1350   58.0702 H       1  ZINC000768148687    0.0700
     43 H43        -4.2996    3.3253   53.1381 H       1  ZINC000768148687    0.1500
@<TRIPOS>BOND
     1     1     2    1
     2     1    26    1
     3     1    27    1
     4     1    28    1
     5     2     3    1
     6     2    29    1
     7     2    30    1
     8     3    22    1
     9     3     4    1
    10     4     5    2
    11     5     6    1
    12     5    10    1
    13     6     7    1
    14     6     8    1
    15     6     9    1
    16    10    11    1
    17    10    22    2
    18    11    12    2
    19    11    13    1
    20    13    14    1
    21    14    15    1
    22    14    31    1
    23    14    32    1
    24    15    16    1
    25    15    33    1
    26    15    34    1
    27    16    21    1
    28    16    17    1
    29    17    18    1
    30    17    35    1
    31    17    36    1
    32    18    19    1
    33    18    37    1
    34    18    38    1
    35    19    20    1
    36    20    21    1
    37    20    39    1
    38    20    40    1
    39    21    41    1
    40    21    42    1
    41    22    23    1
    42    23    24    1
    43    23    25    1
    44    23    43    1
@<TRIPOS>SUBSTRUCTURE
     1 ZINC000768148687        1 TEMP              0 ****  ****    0 ROOT


##########                                Name:    ZINC000279331220
##########                DOCK_Rotatable_Bonds:                   9
##########                         Heavy_Atoms:                  24
##########                    Molecular_Weight:             328.411
##########                DOCK_Rotatable_Bonds:                   9
##########                       Formal_Charge:          -0.0100001
##########                     HBond_Acceptors:                   5
##########                        HBond_Donors:                   0
##########                         Heavy_Atoms:                  24
##########                          Grid_Score:          -28.395893
##########                     Grid_vdw_energy:          -27.371384
##########                      Grid_es_energy:           -1.024510
##########           Internal_energy_repulsive:           25.797184

@<TRIPOS>MOLECULE
ZINC000279331220
 48 49 1 0 0
SMALL
USER_CHARGES


@<TRIPOS>ATOM
      1 C1          4.4686   -0.1980   44.7760 C.3     1  ZINC000279331220   -0.1500
      2 C2          3.8545    1.2030   44.8057 C.3     1  ZINC000279331220    0.0500
      3 O3          3.5918    1.5792   46.1591 O.3     1  ZINC000279331220   -0.3000
      4 C4          3.0422    2.8062   46.3633 C.ar    1  ZINC000279331220    0.1000
      5 C5          2.7826    3.6384   45.2866 C.ar    1  ZINC000279331220   -0.1700
      6 C6          2.2233    4.8856   45.4959 C.ar    1  ZINC000279331220   -0.1200
      7 C7          1.9223    5.3051   46.7780 C.ar    1  ZINC000279331220   -0.1200
      8 C8          2.1793    4.4795   47.8572 C.ar    1  ZINC000279331220   -0.1700
      9 C9          2.7337    3.2264   47.6539 C.ar    1  ZINC000279331220    0.1000
     10 O10         2.9870    2.4133   48.7141 O.3     1  ZINC000279331220   -0.3000
     11 C11         2.2613    2.6713   49.9177 C.3     1  ZINC000279331220    0.0600
     12 C12         0.7796    2.3609   49.6964 C.3     1  ZINC000279331220   -0.1100
     13 C13         0.0036    2.6304   50.9871 C.3     1  ZINC000279331220   -0.1300
     14 C14        -1.4516    2.3004   50.7767 C.2     1  ZINC000279331220    0.5200
     15 O15        -1.8166    1.8081   49.7302 O.2     1  ZINC000279331220   -0.5200
     16 N16        -2.3476    2.5523   51.7515 N.am    1  ZINC000279331220   -0.5700
     17 C17        -1.9070    3.1487   53.0150 C.3     1  ZINC000279331220    0.0800
     18 C18        -3.6936    2.2455   51.5574 C.ar    1  ZINC000279331220    0.3400
     19 N19        -4.0802    0.9801   51.5293 N.ar    1  ZINC000279331220   -0.4800
     20 C20        -5.3437    0.6464   51.3482 C.ar    1  ZINC000279331220    0.1100
     21 C21        -6.3145    1.6138   51.1805 C.ar    1  ZINC000279331220   -0.1600
     22 C22        -5.9502    2.9534   51.2036 C.ar    1  ZINC000279331220   -0.0700
     23 C23        -4.6183    3.2720   51.4010 C.ar    1  ZINC000279331220   -0.1200
     24 C24        -4.1742    4.7117   51.4344 C.3     1  ZINC000279331220   -0.1100
     25 H25         4.6690   -0.4850   43.7437 H       1  ZINC000279331220    0.0800
     26 H26         5.4010   -0.1980   45.3406 H       1  ZINC000279331220    0.0700
     27 H27         3.7735   -0.9091   45.2223 H       1  ZINC000279331220    0.0700
     28 H28         4.5496    1.9141   44.3594 H       1  ZINC000279331220    0.0600
     29 H29         2.9220    1.2031   44.2411 H       1  ZINC000279331220    0.0600
     30 H30         3.0175    3.3133   44.2839 H       1  ZINC000279331220    0.1300
     31 H31         2.0214    5.5335   44.6558 H       1  ZINC000279331220    0.1300
     32 H32         1.4858    6.2801   46.9373 H       1  ZINC000279331220    0.1300
     33 H33         1.9437    4.8100   48.8580 H       1  ZINC000279331220    0.1300
     34 H34         2.6490    2.0410   50.7180 H       1  ZINC000279331220    0.0600
     35 H35         2.3756    3.7197   50.1933 H       1  ZINC000279331220    0.0600
     36 H36         0.3906    2.9948   48.8995 H       1  ZINC000279331220    0.0800
     37 H37         0.6657    1.3137   49.4160 H       1  ZINC000279331220    0.0800
     38 H38         0.4048    2.0099   51.7885 H       1  ZINC000279331220    0.1000
     39 H39         0.1024    3.6817   51.2576 H       1  ZINC000279331220    0.1000
     40 H40        -1.8666    4.2329   52.9105 H       1  ZINC000279331220    0.0700
     41 H41        -2.6100    2.8858   53.8055 H       1  ZINC000279331220    0.0800
     42 H42        -0.9166    2.7710   53.2692 H       1  ZINC000279331220    0.0800
     43 H43        -5.6223   -0.3969   51.3306 H       1  ZINC000279331220    0.1600
     44 H44        -7.3463    1.3315   51.0325 H       1  ZINC000279331220    0.1400
     45 H45        -6.6904    3.7292   51.0748 H       1  ZINC000279331220    0.1400
     46 H46        -4.1371    5.0566   52.4678 H       1  ZINC000279331220    0.0800
     47 H47        -3.1839    4.7969   50.9872 H       1  ZINC000279331220    0.0700
     48 H48        -4.8806    5.3229   50.8726 H       1  ZINC000279331220    0.0700
@<TRIPOS>BOND
     1     1     2    1
     2     1    25    1
     3     1    26    1
     4     1    27    1
     5     2     3    1
     6     2    28    1
     7     2    29    1
     8     3     4    1
     9     4     9   ar
    10     4     5   ar
    11     5     6   ar
    12     5    30    1
    13     6     7   ar
    14     6    31    1
    15     7     8   ar
    16     7    32    1
    17     8     9   ar
    18     8    33    1
    19     9    10    1
    20    10    11    1
    21    11    12    1
    22    11    34    1
    23    11    35    1
    24    12    13    1
    25    12    36    1
    26    12    37    1
    27    13    14    1
    28    13    38    1
    29    13    39    1
    30    14    15    2
    31    14    16   am
    32    16    17    1
    33    16    18    1
    34    17    40    1
    35    17    41    1
    36    17    42    1
    37    18    23   ar
    38    18    19   ar
    39    19    20   ar
    40    20    21   ar
    41    20    43    1
    42    21    22   ar
    43    21    44    1
    44    22    23   ar
    45    22    45    1
    46    23    24    1
    47    24    46    1
    48    24    47    1
    49    24    48    1
@<TRIPOS>SUBSTRUCTURE
     1 ZINC000279331220        1 TEMP              0 ****  ****    0 ROOT


##########                                Name:    ZINC000279593480
##########                DOCK_Rotatable_Bonds:                   9
##########                         Heavy_Atoms:                  23
##########                    Molecular_Weight:              340.85
##########                DOCK_Rotatable_Bonds:                   9
##########                       Formal_Charge:          -0.0500002
##########                     HBond_Acceptors:                   6
##########                        HBond_Donors:                   3
##########                         Heavy_Atoms:                  23
##########                          Grid_Score:          -28.363199
##########                     Grid_vdw_energy:          -26.747492
##########                      Grid_es_energy:           -1.615708
##########           Internal_energy_repulsive:           14.648163

@<TRIPOS>MOLECULE
ZINC000279593480
 48 49 1 0 0
SMALL
USER_CHARGES


@<TRIPOS>ATOM
      1 C1          2.4589    4.3161   53.2782 C.3     1  ZINC000279593480   -0.1400
      2 C2          1.3595    4.8722   52.3709 C.3     1  ZINC000279593480   -0.1400
      3 C3          0.6572    3.7173   51.6541 C.3     1  ZINC000279593480    0.1700
      4 H4          0.7318    2.8144   52.2601 H       1  ZINC000279593480    0.0900
      5 C5          1.3239    3.4780   50.2980 C.3     1  ZINC000279593480   -0.0900
      6 C6          2.3814    2.4135   50.4391 C.ar    1  ZINC000279593480   -0.0800
      7 C7          2.0157    1.1078   50.7087 C.ar    1  ZINC000279593480   -0.1000
      8 C8          2.9850    0.1311   50.8382 C.ar    1  ZINC000279593480   -0.1100
      9 C9          4.3215    0.4603   50.6978 C.ar    1  ZINC000279593480   -0.0400
     10 Cl10        5.5395   -0.7660   50.8597 Cl      1  ZINC000279593480   -0.0700
     11 C11         4.6867    1.7672   50.4279 C.ar    1  ZINC000279593480   -0.1100
     12 C12         3.7162    2.7420   50.2931 C.ar    1  ZINC000279593480   -0.1000
     13 N13        -0.7542    4.0543   51.4517 N.am    1  ZINC000279593480   -0.7400
     14 C14        -1.6583    3.0756   51.2490 C.2     1  ZINC000279593480    0.7100
     15 O15        -1.3029    1.9129   51.2357 O.2     1  ZINC000279593480   -0.5800
     16 N16        -2.9564    3.3857   51.0611 N.am    1  ZINC000279593480   -0.7500
     17 C17        -3.9394    2.3217   50.8426 C.3     1  ZINC000279593480    0.1200
     18 C18        -5.1909    2.6045   51.6763 C.3     1  ZINC000279593480    0.0900
     19 O19        -4.8661    2.6428   53.0674 O.3     1  ZINC000279593480   -0.5400
     20 C20        -5.8477    3.9311   51.2338 C.3     1  ZINC000279593480   -0.1900
     21 C21        -7.2516    3.5103   50.7454 C.3     1  ZINC000279593480    0.0500
     22 O22        -7.5226    2.2670   51.4286 O.3     1  ZINC000279593480   -0.3600
     23 C23        -6.2755    1.5390   51.4028 C.3     1  ZINC000279593480    0.0900
     24 H24        -6.1220    1.0837   50.4244 H       1  ZINC000279593480    0.0800
     25 C25        -6.2611    0.4683   52.4957 C.3     1  ZINC000279593480   -0.1400
     26 H26         3.1835    3.7674   52.6766 H       1  ZINC000279593480    0.0600
     27 H27         2.9592    5.1389   53.7889 H       1  ZINC000279593480    0.0400
     28 H28         2.0170    3.6459   54.0155 H       1  ZINC000279593480    0.0600
     29 H29         0.6348    5.4208   52.9725 H       1  ZINC000279593480    0.0600
     30 H30         1.8014    5.5424   51.6336 H       1  ZINC000279593480    0.0700
     31 H31         0.5742    3.1521   49.5770 H       1  ZINC000279593480    0.0800
     32 H32         1.7838    4.4032   49.9509 H       1  ZINC000279593480    0.0900
     33 H33         0.9724    0.8511   50.8186 H       1  ZINC000279593480    0.1300
     34 H34         2.6993   -0.8889   51.0492 H       1  ZINC000279593480    0.1300
     35 H35         5.7298    2.0248   50.3186 H       1  ZINC000279593480    0.1300
     36 H36         4.0012    3.7621   50.0821 H       1  ZINC000279593480    0.1300
     37 H37        -1.0378    4.9818   51.4634 H       1  ZINC000279593480    0.3900
     38 H38        -3.2397    4.3133   51.0705 H       1  ZINC000279593480    0.3900
     39 H39        -4.2069    2.2854   49.7866 H       1  ZINC000279593480    0.0800
     40 H40        -3.5119    1.3648   51.1422 H       1  ZINC000279593480    0.0800
     41 H41        -4.2815    1.9281   53.3546 H       1  ZINC000279593480    0.3700
     42 H42        -5.9266    4.6179   52.0764 H       1  ZINC000279593480    0.0900
     43 H43        -5.2810    4.3855   50.4212 H       1  ZINC000279593480    0.0900
     44 H44        -7.9904    4.2631   51.0201 H       1  ZINC000279593480    0.1000
     45 H45        -7.2478    3.3573   49.6662 H       1  ZINC000279593480    0.0600
     46 H46        -7.0671   -0.2436   52.3175 H       1  ZINC000279593480    0.0600
     47 H47        -5.3047   -0.0542   52.4799 H       1  ZINC000279593480    0.0700
     48 H48        -6.4015    0.9399   53.4683 H       1  ZINC000279593480    0.0700
@<TRIPOS>BOND
     1     1     2    1
     2     1    26    1
     3     1    27    1
     4     1    28    1
     5     2     3    1
     6     2    29    1
     7     2    30    1
     8     3     4    1
     9     3     5    1
    10     3    13    1
    11     5     6    1
    12     5    31    1
    13     5    32    1
    14     6    12   ar
    15     6     7   ar
    16     7     8   ar
    17     7    33    1
    18     8     9   ar
    19     8    34    1
    20     9    10    1
    21     9    11   ar
    22    11    12   ar
    23    11    35    1
    24    12    36    1
    25    13    14   am
    26    13    37    1
    27    14    15    2
    28    14    16   am
    29    16    17    1
    30    16    38    1
    31    17    18    1
    32    17    39    1
    33    17    40    1
    34    18    23    1
    35    18    19    1
    36    18    20    1
    37    19    41    1
    38    20    21    1
    39    20    42    1
    40    20    43    1
    41    21    22    1
    42    21    44    1
    43    21    45    1
    44    22    23    1
    45    23    24    1
    46    23    25    1
    47    25    46    1
    48    25    47    1
    49    25    48    1
@<TRIPOS>SUBSTRUCTURE
     1 ZINC000279593480        1 TEMP              0 ****  ****    0 ROOT


##########                                Name:    ZINC001085817863
##########                DOCK_Rotatable_Bonds:                   7
##########                         Heavy_Atoms:                  24
##########                    Molecular_Weight:             326.442
##########                DOCK_Rotatable_Bonds:                   7
##########                       Formal_Charge:           0.0299998
##########                     HBond_Acceptors:                   5
##########                        HBond_Donors:                   0
##########                         Heavy_Atoms:                  24
##########                          Grid_Score:          -28.354439
##########                     Grid_vdw_energy:          -27.497955
##########                      Grid_es_energy:           -0.856483
##########           Internal_energy_repulsive:           13.068843

@<TRIPOS>MOLECULE
ZINC001085817863
 50 52 1 0 0
SMALL
USER_CHARGES


@<TRIPOS>ATOM
      1 C1        -13.6262    1.3986   56.6711 C.3     1  ZINC001085817863   -0.1400
      2 C2        -13.4294    0.3950   55.5332 C.3     1  ZINC001085817863   -0.0700
      3 C3        -12.5024   -0.7033   55.9866 C.2     1  ZINC001085817863    0.1100
      4 C4        -11.1549   -0.7578   55.7588 C.2     1  ZINC001085817863   -0.2400
      5 C5        -10.3391    0.2310   55.0341 C.2     1  ZINC001085817863    0.6000
      6 O6         -9.7690    1.1145   55.6454 O.2     1  ZINC001085817863   -0.5300
      7 N7        -10.2241    0.1569   53.6932 N.am    1  ZINC001085817863   -0.6100
      8 C8        -10.9107   -0.9072   52.9568 C.3     1  ZINC001085817863    0.0800
      9 C9         -9.4125    1.1406   52.9723 C.3     1  ZINC001085817863    0.1300
     10 C10        -7.9380    0.7393   53.0482 C.3     1  ZINC001085817863    0.0100
     11 H11        -7.5143    0.8779   54.0429 H       1  ZINC001085817863    0.0800
     12 C12        -7.6487   -0.6434   52.4474 C.3     1  ZINC001085817863   -0.1400
     13 C13        -6.3809    0.0422   51.9189 C.3     1  ZINC001085817863    0.0000
     14 N14        -7.1144    1.3219   51.9724 N.3     1  ZINC001085817863   -0.4400
     15 C15        -6.2579    2.3985   52.4873 C.3     1  ZINC001085817863    0.0700
     16 C16        -4.9734    2.4384   51.7002 C.ar    1  ZINC001085817863   -0.1300
     17 C17        -3.7628    2.6479   52.3425 C.ar    1  ZINC001085817863   -0.0700
     18 C18        -2.6063    2.6764   51.5779 C.ar    1  ZINC001085817863   -0.1700
     19 C19        -2.6981    2.4963   50.2109 C.ar    1  ZINC001085817863    0.1000
     20 N20        -3.8674    2.2993   49.6335 N.ar    1  ZINC001085817863   -0.4800
     21 C21        -4.9867    2.2609   50.3295 C.ar    1  ZINC001085817863    0.1200
     22 C22       -10.6865   -1.9998   56.3830 C.2     1  ZINC001085817863   -0.1900
     23 C23       -11.7701   -2.5822   56.9264 C.2     1  ZINC001085817863   -0.0200
     24 N24       -12.8591   -1.7949   56.6898 N.pl3   1  ZINC001085817863   -0.4400
     25 C25       -14.2232   -2.0989   57.1290 C.3     1  ZINC001085817863    0.0600
     26 H26       -14.2965    2.1930   56.3433 H       1  ZINC001085817863    0.0600
     27 H27       -14.0589    0.8905   57.5329 H       1  ZINC001085817863    0.0500
     28 H28       -12.6629    1.8272   56.9482 H       1  ZINC001085817863    0.0600
     29 H29       -14.3925   -0.0337   55.2562 H       1  ZINC001085817863    0.0600
     30 H30       -12.9966    0.9031   54.6715 H       1  ZINC001085817863    0.1100
     31 H31       -11.9825   -0.8465   53.1456 H       1  ZINC001085817863    0.0700
     32 H32       -10.7225   -0.7903   51.8896 H       1  ZINC001085817863    0.0700
     33 H33       -10.5379   -1.8767   53.2874 H       1  ZINC001085817863    0.0600
     34 H34        -9.7262    1.1759   51.9290 H       1  ZINC001085817863    0.0800
     35 H35        -9.5453    2.1233   53.4250 H       1  ZINC001085817863    0.1000
     36 H36        -7.4601   -1.4210   53.1876 H       1  ZINC001085817863    0.0800
     37 H37        -8.3491   -0.9473   51.6695 H       1  ZINC001085817863    0.1000
     38 H38        -5.5408   -0.0049   52.6118 H       1  ZINC001085817863    0.0700
     39 H39        -6.1118   -0.2628   50.9077 H       1  ZINC001085817863    0.0800
     40 H40        -6.7747    3.3530   52.3880 H       1  ZINC001085817863    0.0900
     41 H41        -6.0344    2.2140   53.5381 H       1  ZINC001085817863    0.0500
     42 H42        -3.7215    2.7860   53.4128 H       1  ZINC001085817863    0.1300
     43 H43        -1.6458    2.8377   52.0448 H       1  ZINC001085817863    0.1300
     44 H44        -1.8021    2.5175   49.6083 H       1  ZINC001085817863    0.1600
     45 H45        -5.9257    2.0974   49.8216 H       1  ZINC001085817863    0.1500
     46 H46        -9.6730   -2.3726   56.4022 H       1  ZINC001085817863    0.1600
     47 H47       -11.7767   -3.5180   57.4654 H       1  ZINC001085817863    0.1600
     48 H48       -14.3898   -1.6728   58.1184 H       1  ZINC001085817863    0.0800
     49 H49       -14.9359   -1.6703   56.4243 H       1  ZINC001085817863    0.0900
     50 H50       -14.3590   -3.1795   57.1713 H       1  ZINC001085817863    0.0900
@<TRIPOS>BOND
     1     1     2    1
     2     1    26    1
     3     1    27    1
     4     1    28    1
     5     2     3    1
     6     2    29    1
     7     2    30    1
     8     3    24    1
     9     3     4    2
    10     4     5    1
    11     4    22    1
    12     5     6    2
    13     5     7   am
    14     7     8    1
    15     7     9    1
    16     8    31    1
    17     8    32    1
    18     8    33    1
    19     9    10    1
    20     9    34    1
    21     9    35    1
    22    10    11    1
    23    10    14    1
    24    10    12    1
    25    12    13    1
    26    12    36    1
    27    12    37    1
    28    13    14    1
    29    13    38    1
    30    13    39    1
    31    14    15    1
    32    15    16    1
    33    15    40    1
    34    15    41    1
    35    16    21   ar
    36    16    17   ar
    37    17    18   ar
    38    17    42    1
    39    18    19   ar
    40    18    43    1
    41    19    20   ar
    42    19    44    1
    43    20    21   ar
    44    21    45    1
    45    22    23    2
    46    22    46    1
    47    23    24    1
    48    23    47    1
    49    24    25    1
    50    25    48    1
    51    25    49    1
    52    25    50    1
@<TRIPOS>SUBSTRUCTURE
     1 ZINC001085817863        1 TEMP              0 ****  ****    0 ROOT


##########                                Name:    ZINC000859202493
##########                DOCK_Rotatable_Bonds:                  11
##########                         Heavy_Atoms:                  25
##########                    Molecular_Weight:             382.404
##########                DOCK_Rotatable_Bonds:                  11
##########                       Formal_Charge:          -0.0200009
##########                     HBond_Acceptors:                  10
##########                        HBond_Donors:                   3
##########                         Heavy_Atoms:                  25
##########                          Grid_Score:          -28.308514
##########                     Grid_vdw_energy:          -28.343452
##########                      Grid_es_energy:            0.034939
##########           Internal_energy_repulsive:           14.161496

@<TRIPOS>MOLECULE
ZINC000859202493
 46 46 1 0 0
SMALL
USER_CHARGES


@<TRIPOS>ATOM
      1 C1         -7.6175    3.4781   55.8940 C.3     1  ZINC000859202493   -0.1500
      2 C2         -6.4749    4.3593   55.3851 C.3     1  ZINC000859202493   -0.1200
      3 C3         -5.2187    3.5066   55.1957 C.3     1  ZINC000859202493   -0.1000
      4 H4         -5.5004    2.5232   54.8192 H       1  ZINC000859202493    0.0700
      5 C5         -4.5000    3.3523   56.5375 C.3     1  ZINC000859202493   -0.1600
      6 C6         -4.2859    4.1885   54.1929 C.3     1  ZINC000859202493   -0.1200
      7 C7         -4.3623    3.4611   52.8490 C.3     1  ZINC000859202493    0.1600
      8 H8         -4.5368    2.3989   53.0202 H       1  ZINC000859202493    0.1000
      9 C9         -3.0448    3.6460   52.0933 C.3     1  ZINC000859202493    0.0500
     10 O10        -1.9718    3.1061   52.8675 O.3     1  ZINC000859202493   -0.5700
     11 N11        -5.4622    4.0151   52.0557 N.am    1  ZINC000859202493   -1.1000
     12 S12        -6.1659    3.1035   50.8657 S.o2    1  ZINC000859202493    2.6900
     13 O13        -7.2794    3.8499   50.3940 O.2     1  ZINC000859202493   -0.9500
     14 O14        -5.1114    2.6631   50.0211 O.2     1  ZINC000859202493   -0.9500
     15 C15        -6.8236    1.6606   51.6341 C.ar    1  ZINC000859202493   -0.6600
     16 C16        -6.1123    0.4755   51.6010 C.ar    1  ZINC000859202493   -0.0300
     17 C17        -6.6253   -0.6593   52.2025 C.ar    1  ZINC000859202493   -0.1100
     18 C18        -7.8500   -0.6117   52.8387 C.ar    1  ZINC000859202493   -0.0600
     19 C19        -8.5668    0.5774   52.8741 C.ar    1  ZINC000859202493    0.1200
     20 N20        -9.8079    0.6290   53.5183 N.am    1  ZINC000859202493   -0.6500
     21 C21       -10.8269   -0.1366   53.0803 C.2     1  ZINC000859202493    0.4800
     22 O22       -10.6682   -0.8703   52.1277 O.2     1  ZINC000859202493   -0.4500
     23 C23       -12.1635   -0.0810   53.7742 C.3     1  ZINC000859202493    0.4600
     24 F24       -12.4216    1.2314   54.1845 F       1  ZINC000859202493   -0.1500
     25 F25       -13.1650   -0.4990   52.8914 F       1  ZINC000859202493   -0.1600
     26 F26       -12.1446   -0.9235   54.8908 F       1  ZINC000859202493   -0.1600
     27 C27        -8.0467    1.7163   52.2737 C.ar    1  ZINC000859202493   -0.0300
     28 H28        -8.5123    4.0856   56.0288 H       1  ZINC000859202493    0.0500
     29 H29        -7.8193    2.6900   55.1685 H       1  ZINC000859202493    0.0500
     30 H30        -7.3348    3.0310   56.8470 H       1  ZINC000859202493    0.0600
     31 H31        -6.7576    4.8063   54.4320 H       1  ZINC000859202493    0.0600
     32 H32        -6.2731    5.1473   56.1104 H       1  ZINC000859202493    0.0600
     33 H33        -3.6050    2.7449   56.4026 H       1  ZINC000859202493    0.0500
     34 H34        -4.2183    4.3357   56.9139 H       1  ZINC000859202493    0.0600
     35 H35        -5.1645    2.8665   57.2519 H       1  ZINC000859202493    0.0600
     36 H36        -4.5900    5.2270   54.0617 H       1  ZINC000859202493    0.0800
     37 H37        -3.2626    4.1541   54.5670 H       1  ZINC000859202493    0.0800
     38 H38        -3.0991    3.1274   51.1361 H       1  ZINC000859202493    0.0600
     39 H39        -2.8704    4.7081   51.9217 H       1  ZINC000859202493    0.0600
     40 H40        -1.8620    3.5238   53.7326 H       1  ZINC000859202493    0.3800
     41 H41        -5.7784    4.9159   52.2275 H       1  ZINC000859202493    0.4200
     42 H42        -5.1543    0.4357   51.1041 H       1  ZINC000859202493    0.1500
     43 H43        -6.0676   -1.5837   52.1744 H       1  ZINC000859202493    0.1400
     44 H44        -8.2502   -1.4983   53.3079 H       1  ZINC000859202493    0.1400
     45 H45        -9.9348    1.2158   54.2803 H       1  ZINC000859202493    0.4200
     46 H46        -8.6016    2.6425   52.2995 H       1  ZINC000859202493    0.1500
@<TRIPOS>BOND
     1     1     2    1
     2     1    28    1
     3     1    29    1
     4     1    30    1
     5     2     3    1
     6     2    31    1
     7     2    32    1
     8     3     4    1
     9     3     5    1
    10     3     6    1
    11     5    33    1
    12     5    34    1
    13     5    35    1
    14     6     7    1
    15     6    36    1
    16     6    37    1
    17     7     8    1
    18     7     9    1
    19     7    11    1
    20     9    10    1
    21     9    38    1
    22     9    39    1
    23    10    40    1
    24    11    12   am
    25    11    41    1
    26    12    13    2
    27    12    14    2
    28    12    15    1
    29    15    27   ar
    30    15    16   ar
    31    16    17   ar
    32    16    42    1
    33    17    18   ar
    34    17    43    1
    35    18    19   ar
    36    18    44    1
    37    19    20    1
    38    19    27   ar
    39    20    21   am
    40    20    45    1
    41    21    22    2
    42    21    23    1
    43    23    24    1
    44    23    25    1
    45    23    26    1
    46    27    46    1
@<TRIPOS>SUBSTRUCTURE
     1 ZINC000859202493        1 TEMP              0 ****  ****    0 ROOT


##########                                Name:    ZINC000420486261
##########                DOCK_Rotatable_Bonds:                   7
##########                         Heavy_Atoms:                  26
##########                    Molecular_Weight:             353.378
##########                DOCK_Rotatable_Bonds:                   7
##########                       Formal_Charge:        -2.98023e-08
##########                     HBond_Acceptors:                   7
##########                        HBond_Donors:                   0
##########                         Heavy_Atoms:                  26
##########                          Grid_Score:          -28.295834
##########                     Grid_vdw_energy:          -27.250671
##########                      Grid_es_energy:           -1.045162
##########           Internal_energy_repulsive:            8.590086

@<TRIPOS>MOLECULE
ZINC000420486261
 45 47 1 0 0
SMALL
USER_CHARGES


@<TRIPOS>ATOM
      1 C1        -10.2217    3.2156   63.8089 C.3     1  ZINC000420486261    0.0400
      2 O2         -9.4854    2.4562   62.8142 O.3     1  ZINC000420486261   -0.3500
      3 C3         -8.9041    3.1537   61.8195 C.2     1  ZINC000420486261    0.5100
      4 O4         -9.0267    4.3608   61.7723 O.2     1  ZINC000420486261   -0.4900
      5 C5         -8.1157    2.4486   60.7836 C.ar    1  ZINC000420486261   -0.0700
      6 C6         -7.9546    1.0597   60.8254 C.ar    1  ZINC000420486261   -0.0900
      7 C7         -7.2108    0.4361   59.8387 C.ar    1  ZINC000420486261    0.1100
      8 N8         -6.6560    1.1284   58.8677 N.ar    1  ZINC000420486261   -0.4200
      9 C9         -6.7806    2.4473   58.7854 C.ar    1  ZINC000420486261    0.1900
     10 C10        -6.1351    3.1759   57.6706 C.2     1  ZINC000420486261    0.2200
     11 N11        -5.1821    2.7195   56.8816 N.2     1  ZINC000420486261   -0.4300
     12 C12        -4.9124    3.7248   56.0223 C.2     1  ZINC000420486261    0.2200
     13 C13        -3.9071    3.7026   54.9319 C.ar    1  ZINC000420486261   -0.0600
     14 C14        -2.5474    3.7022   55.2337 C.ar    1  ZINC000420486261   -0.0300
     15 C15        -1.6159    3.6815   54.2155 C.ar    1  ZINC000420486261   -0.1600
     16 C16        -2.0275    3.6612   52.8946 C.ar    1  ZINC000420486261   -0.0600
     17 C17        -3.3739    3.6615   52.5837 C.ar    1  ZINC000420486261   -0.2200
     18 C18        -4.3203    3.6763   53.5961 C.ar    1  ZINC000420486261    0.1700
     19 O19        -5.6438    3.6764   53.2919 O.3     1  ZINC000420486261   -0.2900
     20 C20        -6.3326    2.4285   53.3926 C.3     1  ZINC000420486261    0.0600
     21 C21        -5.9157    1.5209   52.2335 C.3     1  ZINC000420486261   -0.0900
     22 C22        -6.5072    0.1251   52.4404 C.3     1  ZINC000420486261   -0.1500
     23 C23        -6.4335    2.1042   50.9173 C.3     1  ZINC000420486261   -0.1500
     24 N24        -5.7021    4.7227   56.3288 N.2     1  ZINC000420486261   -0.3400
     25 O25        -6.4120    4.4249   57.2660 O.3     1  ZINC000420486261    0.1000
     26 C26        -7.5176    3.1522   59.7349 C.ar    1  ZINC000420486261   -0.0700
     27 H27       -10.6383    2.5345   64.5509 H       1  ZINC000420486261    0.1100
     28 H28        -9.5496    3.9200   64.2991 H       1  ZINC000420486261    0.0700
     29 H29       -11.0301    3.7624   63.3234 H       1  ZINC000420486261    0.0700
     30 H30        -8.4049    0.4809   61.6182 H       1  ZINC000420486261    0.1600
     31 H31        -7.0836   -0.6360   59.8668 H       1  ZINC000420486261    0.1800
     32 H32        -2.2223    3.7184   56.2635 H       1  ZINC000420486261    0.1400
     33 H33        -0.5618    3.6817   54.4507 H       1  ZINC000420486261    0.1300
     34 H34        -1.2931    3.6456   52.1029 H       1  ZINC000420486261    0.1300
     35 H35        -3.6891    3.6456   51.5508 H       1  ZINC000420486261    0.1400
     36 H36        -6.0800    1.9493   54.3384 H       1  ZINC000420486261    0.0600
     37 H37        -7.4078    2.6025   53.3492 H       1  ZINC000420486261    0.0600
     38 H38        -4.8283    1.4532   52.1981 H       1  ZINC000420486261    0.0800
     39 H39        -7.5944    0.1929   52.4759 H       1  ZINC000420486261    0.0600
     40 H40        -6.2101   -0.5214   51.6148 H       1  ZINC000420486261    0.0700
     41 H41        -6.1382   -0.2905   53.3782 H       1  ZINC000420486261    0.0600
     42 H42        -7.5208    2.1720   50.9527 H       1  ZINC000420486261    0.0500
     43 H43        -6.0121    3.0986   50.7699 H       1  ZINC000420486261    0.0600
     44 H44        -6.1364    1.4577   50.0915 H       1  ZINC000420486261    0.0600
     45 H45        -7.6181    4.2253   59.6660 H       1  ZINC000420486261    0.1600
@<TRIPOS>BOND
     1     1     2    1
     2     1    27    1
     3     1    28    1
     4     1    29    1
     5     2     3    1
     6     3     4    2
     7     3     5    1
     8     5    26   ar
     9     5     6   ar
    10     6     7   ar
    11     6    30    1
    12     7     8   ar
    13     7    31    1
    14     8     9   ar
    15     9    10    1
    16     9    26   ar
    17    10    25    1
    18    10    11    2
    19    11    12    1
    20    12    13    1
    21    12    24    2
    22    13    18   ar
    23    13    14   ar
    24    14    15   ar
    25    14    32    1
    26    15    16   ar
    27    15    33    1
    28    16    17   ar
    29    16    34    1
    30    17    18   ar
    31    17    35    1
    32    18    19    1
    33    19    20    1
    34    20    21    1
    35    20    36    1
    36    20    37    1
    37    21    22    1
    38    21    23    1
    39    21    38    1
    40    22    39    1
    41    22    40    1
    42    22    41    1
    43    23    42    1
    44    23    43    1
    45    23    44    1
    46    24    25    1
    47    26    45    1
@<TRIPOS>SUBSTRUCTURE
     1 ZINC000420486261        1 TEMP              0 ****  ****    0 ROOT


##########                                Name:    ZINC000847397179
##########                DOCK_Rotatable_Bonds:                   9
##########                         Heavy_Atoms:                  25
##########                    Molecular_Weight:             350.461
##########                DOCK_Rotatable_Bonds:                   9
##########                       Formal_Charge:          0.00999979
##########                     HBond_Acceptors:                   7
##########                        HBond_Donors:                   2
##########                         Heavy_Atoms:                  25
##########                          Grid_Score:          -28.281351
##########                     Grid_vdw_energy:          -26.890427
##########                      Grid_es_energy:           -1.390925
##########           Internal_energy_repulsive:           86.444786

@<TRIPOS>MOLECULE
ZINC000847397179
 55 56 1 0 0
SMALL
USER_CHARGES


@<TRIPOS>ATOM
      1 C1        -13.4842   -0.0504   57.0460 C.3     1  ZINC000847397179   -0.1500
      2 C2        -13.0256   -1.2538   56.2200 C.3     1  ZINC000847397179   -0.1000
      3 H3        -13.7504   -1.4495   55.4297 H       1  ZINC000847397179    0.0900
      4 C4        -12.9149   -2.4817   57.1259 C.3     1  ZINC000847397179   -0.0200
      5 C5        -14.2532   -2.7606   57.7600 C.2     1  ZINC000847397179    0.0100
      6 C6        -15.2523   -3.4808   57.2152 C.2     1  ZINC000847397179   -0.0500
      7 N7        -16.2780   -3.4840   58.1217 N.pl3   1  ZINC000847397179   -0.5700
      8 C8        -15.8696   -2.7653   59.1895 C.2     1  ZINC000847397179    0.1800
      9 N9        -14.6559   -2.3400   58.9682 N.2     1  ZINC000847397179   -0.4900
     10 C10       -11.6810   -0.9590   55.6067 C.2     1  ZINC000847397179    0.5200
     11 O11       -10.7981   -1.7893   55.6530 O.2     1  ZINC000847397179   -0.5300
     12 N12       -11.4595    0.2273   55.0067 N.am    1  ZINC000847397179   -0.7400
     13 C13       -10.1517    0.5146   54.4121 C.3     1  ZINC000847397179    0.1200
     14 C14        -9.5803    1.7924   55.0298 C.3     1  ZINC000847397179    0.1500
     15 H15       -10.1887    2.6462   54.7317 H       1  ZINC000847397179    0.0800
     16 C16        -9.5808    1.6694   56.5568 C.3     1  ZINC000847397179   -0.1300
     17 C17        -8.8821    2.8885   57.1631 C.3     1  ZINC000847397179   -0.1200
     18 C18        -7.4297    2.9373   56.6830 C.3     1  ZINC000847397179   -0.1400
     19 C19        -7.4047    3.0748   55.1575 C.3     1  ZINC000847397179    0.1100
     20 N20        -8.1988    1.9872   54.5687 N.am    1  ZINC000847397179   -0.5900
     21 C21        -7.6684    1.1812   53.6279 C.2     1  ZINC000847397179    0.6500
     22 O22        -8.3353    0.2855   53.1489 O.2     1  ZINC000847397179   -0.5500
     23 O23        -6.3994    1.3683   53.2187 O.3     1  ZINC000847397179   -0.3600
     24 C24        -6.2090    1.8706   51.8698 C.3     1  ZINC000847397179    0.1400
     25 C25        -4.8859    2.6350   51.7921 C.3     1  ZINC000847397179   -0.1800
     26 C26        -6.1786    0.6974   50.8882 C.3     1  ZINC000847397179   -0.1400
     27 C27        -7.3620    2.8089   51.5075 C.3     1  ZINC000847397179   -0.1800
     28 H28       -12.7595    0.1454   57.8363 H       1  ZINC000847397179    0.0500
     29 H29       -13.5632    0.8245   56.4006 H       1  ZINC000847397179    0.0500
     30 H30       -14.4568   -0.2636   57.4896 H       1  ZINC000847397179    0.1000
     31 H31       -12.6066   -3.3435   56.5338 H       1  ZINC000847397179    0.0800
     32 H32       -12.1760   -2.2932   57.9047 H       1  ZINC000847397179    0.0800
     33 H33       -15.2458   -3.9628   56.2488 H       1  ZINC000847397179    0.1800
     34 H34       -17.1376   -3.9210   58.0166 H       1  ZINC000847397179    0.4200
     35 H35       -16.4499   -2.5771   60.0808 H       1  ZINC000847397179    0.2100
     36 H36       -12.1659    0.8909   54.9687 H       1  ZINC000847397179    0.3900
     37 H37        -9.4742   -0.3169   54.6054 H       1  ZINC000847397179    0.0800
     38 H38       -10.2636    0.6497   53.3363 H       1  ZINC000847397179    0.1000
     39 H39       -10.6084    1.6222   56.9175 H       1  ZINC000847397179    0.0800
     40 H40        -9.0502    0.7633   56.8490 H       1  ZINC000847397179    0.0700
     41 H41        -9.3986    3.7960   56.8503 H       1  ZINC000847397179    0.0700
     42 H42        -8.9029    2.8155   58.2504 H       1  ZINC000847397179    0.0700
     43 H43        -6.9261    3.7925   57.1336 H       1  ZINC000847397179    0.0800
     44 H44        -6.9193    2.0192   56.9740 H       1  ZINC000847397179    0.0700
     45 H45        -7.8338    4.0345   54.8699 H       1  ZINC000847397179    0.0700
     46 H46        -6.3765    3.0104   54.8016 H       1  ZINC000847397179    0.0900
     47 H47        -4.0644    1.9666   52.0502 H       1  ZINC000847397179    0.0600
     48 H48        -4.7430    3.0121   50.7795 H       1  ZINC000847397179    0.0700
     49 H49        -4.9076    3.4709   52.4915 H       1  ZINC000847397179    0.0900
     50 H50        -7.1212    0.1529   50.9435 H       1  ZINC000847397179    0.0700
     51 H51        -6.0356    1.0746   49.8756 H       1  ZINC000847397179    0.0800
     52 H52        -5.3572    0.0290   51.1462 H       1  ZINC000847397179    0.0700
     53 H53        -7.3836    3.6448   52.2068 H       1  ZINC000847397179    0.0900
     54 H54        -7.2191    3.1861   50.4949 H       1  ZINC000847397179    0.0700
     55 H55        -8.3046    2.2644   51.5628 H       1  ZINC000847397179    0.0600
@<TRIPOS>BOND
     1     1     2    1
     2     1    28    1
     3     1    29    1
     4     1    30    1
     5     2     3    1
     6     2     4    1
     7     2    10    1
     8     4     5    1
     9     4    31    1
    10     4    32    1
    11     5     9    1
    12     5     6    2
    13     6     7    1
    14     6    33    1
    15     7     8    1
    16     7    34    1
    17     8     9    2
    18     8    35    1
    19    10    11    2
    20    10    12   am
    21    12    13    1
    22    12    36    1
    23    13    14    1
    24    13    37    1
    25    13    38    1
    26    14    15    1
    27    14    20    1
    28    14    16    1
    29    16    17    1
    30    16    39    1
    31    16    40    1
    32    17    18    1
    33    17    41    1
    34    17    42    1
    35    18    19    1
    36    18    43    1
    37    18    44    1
    38    19    20    1
    39    19    45    1
    40    19    46    1
    41    20    21   am
    42    21    22    2
    43    21    23    1
    44    23    24    1
    45    24    25    1
    46    24    26    1
    47    24    27    1
    48    25    47    1
    49    25    48    1
    50    25    49    1
    51    26    50    1
    52    26    51    1
    53    26    52    1
    54    27    53    1
    55    27    54    1
    56    27    55    1
@<TRIPOS>SUBSTRUCTURE
     1 ZINC000847397179        1 TEMP              0 ****  ****    0 ROOT


##########                                Name:    ZINC000750807956
##########                DOCK_Rotatable_Bonds:                  11
##########                         Heavy_Atoms:                  26
##########                    Molecular_Weight:             368.473
##########                DOCK_Rotatable_Bonds:                  11
##########                       Formal_Charge:        -8.12113e-07
##########                     HBond_Acceptors:                   7
##########                        HBond_Donors:                   1
##########                         Heavy_Atoms:                  26
##########                          Grid_Score:          -28.259388
##########                     Grid_vdw_energy:          -28.142832
##########                      Grid_es_energy:           -0.116556
##########           Internal_energy_repulsive:           98.736717

@<TRIPOS>MOLECULE
ZINC000750807956
 58 59 1 0 0
SMALL
USER_CHARGES


@<TRIPOS>ATOM
      1 C1         -6.1978   -1.0615   51.4088 C.3     1  ZINC000750807956   -0.1500
      2 C2         -6.3630    0.4158   51.0462 C.3     1  ZINC000750807956    0.0700
      3 O3         -5.1011    1.1065   51.2423 O.3     1  ZINC000750807956   -0.3600
      4 C4         -5.0676    2.4132   50.9371 C.2     1  ZINC000750807956    0.4800
      5 O5         -6.0362    2.9441   50.4474 O.2     1  ZINC000750807956   -0.4900
      6 C6         -3.8221    3.2180   51.2050 C.3     1  ZINC000750807956    0.1600
      7 H7         -3.8059    4.0933   50.5557 H       1  ZINC000750807956    0.1000
      8 C8         -2.5853    2.3554   50.9349 C.3     1  ZINC000750807956   -0.1300
      9 C9         -1.3294    3.1301   51.3407 C.3     1  ZINC000750807956   -0.1200
     10 C10        -1.3824    3.4431   52.8378 C.3     1  ZINC000750807956   -0.1400
     11 C11        -2.6057    4.3180   53.1295 C.3     1  ZINC000750807956    0.1100
     12 N12        -3.8055    3.6467   52.6102 N.am    1  ZINC000750807956   -0.6100
     13 C13        -4.8678    3.4243   53.4091 C.2     1  ZINC000750807956    0.5100
     14 O14        -5.8522    2.8693   52.9687 O.2     1  ZINC000750807956   -0.5000
     15 C15        -4.8327    3.8651   54.8498 C.3     1  ZINC000750807956   -0.1400
     16 C16        -6.0867    3.3623   55.5678 C.3     1  ZINC000750807956    0.2100
     17 H17        -6.3830    2.3999   55.1504 H       1  ZINC000750807956    0.1000
     18 N18        -7.1732    4.3282   55.3872 N.am    1  ZINC000750807956   -0.7000
     19 C19        -8.4097    3.8992   55.0657 C.2     1  ZINC000750807956    0.6600
     20 O20        -8.6238    2.7111   54.9269 O.2     1  ZINC000750807956   -0.5600
     21 O21        -9.4079    4.7870   54.8981 O.3     1  ZINC000750807956   -0.3700
     22 C22       -10.7135    4.2537   54.5526 C.3     1  ZINC000750807956    0.1400
     23 C23       -11.7118    5.4038   54.4060 C.3     1  ZINC000750807956   -0.1800
     24 C24       -10.6186    3.4892   53.2307 C.3     1  ZINC000750807956   -0.1400
     25 C25       -11.1858    3.3061   55.6570 C.3     1  ZINC000750807956   -0.1800
     26 C26        -5.7900    3.2014   57.0601 C.3     1  ZINC000750807956   -0.1800
     27 C27        -6.6050    4.0503   58.0379 C.3     1  ZINC000750807956   -0.1700
     28 C28        -6.8667    2.5468   57.9279 C.3     1  ZINC000750807956   -0.1800
     29 H29        -5.8946   -1.1477   52.4523 H       1  ZINC000750807956    0.0600
     30 H30        -7.1451   -1.5799   51.2616 H       1  ZINC000750807956    0.0800
     31 H31        -5.4356   -1.5091   50.7709 H       1  ZINC000750807956    0.0700
     32 H32        -6.6662    0.5020   50.0027 H       1  ZINC000750807956    0.0700
     33 H33        -7.1252    0.8633   51.6842 H       1  ZINC000750807956    0.0600
     34 H34        -2.6491    1.4357   51.5165 H       1  ZINC000750807956    0.0800
     35 H35        -2.5358    2.1125   49.8735 H       1  ZINC000750807956    0.0800
     36 H36        -0.4463    2.5280   51.1266 H       1  ZINC000750807956    0.0800
     37 H37        -1.2792    4.0614   50.7766 H       1  ZINC000750807956    0.0700
     38 H38        -1.4576    2.5131   53.4015 H       1  ZINC000750807956    0.0700
     39 H39        -0.4770    3.9744   53.1308 H       1  ZINC000750807956    0.0800
     40 H40        -2.7039    4.4617   54.2054 H       1  ZINC000750807956    0.0900
     41 H41        -2.4890    5.2844   52.6389 H       1  ZINC000750807956    0.0800
     42 H42        -3.9471    3.4538   55.3341 H       1  ZINC000750807956    0.1200
     43 H43        -4.7995    4.9537   54.8959 H       1  ZINC000750807956    0.1100
     44 H44        -7.0027    5.2765   55.4991 H       1  ZINC000750807956    0.4000
     45 H45       -11.3753    6.0790   53.6193 H       1  ZINC000750807956    0.0600
     46 H46       -12.6918    5.0035   54.1467 H       1  ZINC000750807956    0.0700
     47 H47       -11.7794    5.9485   55.3478 H       1  ZINC000750807956    0.0900
     48 H48        -9.9074    2.6698   53.3351 H       1  ZINC000750807956    0.0700
     49 H49       -11.5986    3.0888   52.9713 H       1  ZINC000750807956    0.0800
     50 H50       -10.2821    4.1644   52.4439 H       1  ZINC000750807956    0.0700
     51 H51       -11.2535    3.8507   56.5988 H       1  ZINC000750807956    0.0900
     52 H52       -12.1659    2.9057   55.3977 H       1  ZINC000750807956    0.0700
     53 H53       -10.4747    2.4866   55.7615 H       1  ZINC000750807956    0.0600
     54 H54        -4.7489    3.0012   57.3135 H       1  ZINC000750807956    0.1100
     55 H55        -6.1001    4.4089   58.9349 H       1  ZINC000750807956    0.0900
     56 H56        -7.3525    4.7233   57.6180 H       1  ZINC000750807956    0.0900
     57 H57        -7.7865    2.2308   57.4356 H       1  ZINC000750807956    0.1200
     58 H58        -6.5340    1.9164   58.7524 H       1  ZINC000750807956    0.0900
@<TRIPOS>BOND
     1     1     2    1
     2     1    29    1
     3     1    30    1
     4     1    31    1
     5     2     3    1
     6     2    32    1
     7     2    33    1
     8     3     4    1
     9     4     5    2
    10     4     6    1
    11     6     7    1
    12     6    12    1
    13     6     8    1
    14     8     9    1
    15     8    34    1
    16     8    35    1
    17     9    10    1
    18     9    36    1
    19     9    37    1
    20    10    11    1
    21    10    38    1
    22    10    39    1
    23    11    12    1
    24    11    40    1
    25    11    41    1
    26    12    13   am
    27    13    14    2
    28    13    15    1
    29    15    16    1
    30    15    42    1
    31    15    43    1
    32    16    17    1
    33    16    18    1
    34    16    26    1
    35    18    19   am
    36    18    44    1
    37    19    20    2
    38    19    21    1
    39    21    22    1
    40    22    23    1
    41    22    24    1
    42    22    25    1
    43    23    45    1
    44    23    46    1
    45    23    47    1
    46    24    48    1
    47    24    49    1
    48    24    50    1
    49    25    51    1
    50    25    52    1
    51    25    53    1
    52    26    28    1
    53    26    27    1
    54    26    54    1
    55    27    28    1
    56    27    55    1
    57    27    56    1
    58    28    57    1
    59    28    58    1
@<TRIPOS>SUBSTRUCTURE
     1 ZINC000750807956        1 TEMP              0 ****  ****    0 ROOT


##########                                Name:    ZINC000466160459
##########                DOCK_Rotatable_Bonds:                   9
##########                         Heavy_Atoms:                  30
##########                    Molecular_Weight:             420.512
##########                DOCK_Rotatable_Bonds:                   9
##########                       Formal_Charge:          -0.0300007
##########                     HBond_Acceptors:                  10
##########                        HBond_Donors:                   2
##########                         Heavy_Atoms:                  30
##########                          Grid_Score:          -28.252016
##########                     Grid_vdw_energy:          -28.395327
##########                      Grid_es_energy:            0.143310
##########           Internal_energy_repulsive:           96.600288

@<TRIPOS>MOLECULE
ZINC000466160459
 62 64 1 0 0
SMALL
USER_CHARGES


@<TRIPOS>ATOM
      1 C1        -13.1673    0.9947   52.2763 C.3     1  ZINC000466160459    0.0300
      2 O2        -12.2626    0.4837   53.2573 O.3     1  ZINC000466160459   -0.3900
      3 C3        -11.0395   -0.0181   52.7148 C.3     1  ZINC000466160459    0.0500
      4 C4        -10.1750   -0.5837   53.8434 C.3     1  ZINC000466160459    0.1200
      5 N5         -9.9363    0.4586   54.8449 N.am    1  ZINC000466160459   -0.7300
      6 C6         -8.9142    1.3228   54.6877 C.2     1  ZINC000466160459    0.5200
      7 O7         -8.1929    1.2386   53.7164 O.2     1  ZINC000466160459   -0.5200
      8 C8         -8.6676    2.3939   55.7188 C.3     1  ZINC000466160459   -0.1300
      9 H9         -8.2628    1.9411   56.6240 H       1  ZINC000466160459    0.1100
     10 C10        -9.9849    3.1007   56.0463 C.3     1  ZINC000466160459   -0.1000
     11 C11       -10.5711    3.7079   54.7698 C.3     1  ZINC000466160459   -0.1500
     12 C12        -9.5935    4.7442   54.2064 C.3     1  ZINC000466160459    0.1600
     13 H13        -9.5018    5.5769   54.9038 H       1  ZINC000466160459    0.0700
     14 C14       -10.1090    5.2569   52.8603 C.3     1  ZINC000466160459   -0.1400
     15 N15        -8.2821    4.1071   54.0246 N.am    1  ZINC000466160459   -0.6200
     16 C16        -7.6537    4.1570   52.8333 C.2     1  ZINC000466160459    0.7100
     17 O17        -8.1718    4.7332   51.8964 O.2     1  ZINC000466160459   -0.5500
     18 N18        -6.4510    3.5683   52.6806 N.am    1  ZINC000466160459   -0.7300
     19 C19        -5.7680    3.6225   51.3857 C.3     1  ZINC000466160459    0.1600
     20 H20        -6.1177    4.4912   50.8281 H       1  ZINC000466160459    0.1300
     21 C21        -6.0790    2.3505   50.5931 C.3     1  ZINC000466160459   -0.1400
     22 C22        -5.3419    1.1774   51.2503 C.3     1  ZINC000466160459   -0.1400
     23 C23        -3.8377    1.3750   51.0584 C.3     1  ZINC000466160459    0.1100
     24 N24        -3.4417    2.7141   51.4761 N.am    1  ZINC000466160459   -0.5200
     25 C25        -2.0874    2.9410   51.7569 C.2     1  ZINC000466160459    0.2800
     26 N26        -1.1005    2.8795   50.8942 N.2     1  ZINC000466160459   -0.2600
     27 N27         0.0904    3.1705   51.5716 N.pl3   1  ZINC000466160459   -0.3800
     28 C28         1.4297    3.2106   50.9792 C.3     1  ZINC000466160459    0.1000
     29 C29        -0.2117    3.4081   52.8654 C.2     1  ZINC000466160459    0.0700
     30 C30        -1.5503    3.2797   53.0091 C.2     1  ZINC000466160459   -0.2900
     31 C31        -4.2869    3.7350   51.6074 C.2     1  ZINC000466160459    0.4900
     32 O32        -3.8365    4.8162   51.9224 O.2     1  ZINC000466160459   -0.4700
     33 C33        -7.6678    3.4147   55.1665 C.3     1  ZINC000466160459    0.1200
     34 H34       -14.0704    1.3560   52.7681 H       1  ZINC000466160459    0.0900
     35 H35       -12.6936    1.8156   51.7379 H       1  ZINC000466160459    0.0400
     36 H36       -13.4278    0.2023   51.5747 H       1  ZINC000466160459    0.0400
     37 H37       -11.2579   -0.8064   51.9945 H       1  ZINC000466160459    0.0600
     38 H38       -10.5040    0.7905   52.2173 H       1  ZINC000466160459    0.0700
     39 H39       -10.6898   -1.4240   54.3092 H       1  ZINC000466160459    0.0800
     40 H40        -9.2220   -0.9217   53.4366 H       1  ZINC000466160459    0.0800
     41 H41       -10.5140    0.5267   55.6211 H       1  ZINC000466160459    0.4000
     42 H42       -10.6896    2.3807   56.4627 H       1  ZINC000466160459    0.0700
     43 H43        -9.8016    3.8914   56.7738 H       1  ZINC000466160459    0.0700
     44 H44       -10.7316    2.9209   54.0329 H       1  ZINC000466160459    0.1000
     45 H45       -11.5208    4.1910   54.9995 H       1  ZINC000466160459    0.0700
     46 H46       -11.1266    5.6292   52.9788 H       1  ZINC000466160459    0.0400
     47 H47        -9.4659    6.0635   52.5082 H       1  ZINC000466160459    0.0800
     48 H48       -10.1019    4.4435   52.1347 H       1  ZINC000466160459    0.0600
     49 H49        -6.0376    3.1087   53.4282 H       1  ZINC000466160459    0.3900
     50 H50        -7.1527    2.1630   50.6067 H       1  ZINC000466160459    0.0900
     51 H51        -5.7394    2.4671   49.5640 H       1  ZINC000466160459    0.0900
     52 H52        -5.5742    1.1498   52.3150 H       1  ZINC000466160459    0.0700
     53 H53        -5.6507    0.2429   50.7819 H       1  ZINC000466160459    0.1000
     54 H54        -3.2986    0.6378   51.6533 H       1  ZINC000466160459    0.0900
     55 H55        -3.5875    1.2371   50.0065 H       1  ZINC000466160459    0.0800
     56 H56         1.6383    4.2184   50.6202 H       1  ZINC000466160459    0.0700
     57 H57         2.1682    2.9327   51.7313 H       1  ZINC000466160459    0.0900
     58 H58         1.4793    2.5103   50.1453 H       1  ZINC000466160459    0.0900
     59 H59         0.4904    3.6602   53.6464 H       1  ZINC000466160459    0.1800
     60 H60        -2.1065    3.4074   53.9260 H       1  ZINC000466160459    0.1500
     61 H61        -7.4189    4.1390   55.9422 H       1  ZINC000466160459    0.0900
     62 H62        -6.7636    2.9014   54.8393 H       1  ZINC000466160459    0.0700
@<TRIPOS>BOND
     1     1     2    1
     2     1    34    1
     3     1    35    1
     4     1    36    1
     5     2     3    1
     6     3     4    1
     7     3    37    1
     8     3    38    1
     9     4     5    1
    10     4    39    1
    11     4    40    1
    12     5     6   am
    13     5    41    1
    14     6     7    2
    15     6     8    1
    16     8     9    1
    17     8    33    1
    18     8    10    1
    19    10    11    1
    20    10    42    1
    21    10    43    1
    22    11    12    1
    23    11    44    1
    24    11    45    1
    25    12    13    1
    26    12    14    1
    27    12    15    1
    28    14    46    1
    29    14    47    1
    30    14    48    1
    31    15    16   am
    32    15    33    1
    33    16    17    2
    34    16    18   am
    35    18    19    1
    36    18    49    1
    37    19    20    1
    38    19    31    1
    39    19    21    1
    40    21    22    1
    41    21    50    1
    42    21    51    1
    43    22    23    1
    44    22    52    1
    45    22    53    1
    46    23    24    1
    47    23    54    1
    48    23    55    1
    49    24    25    1
    50    24    31   am
    51    25    30    1
    52    25    26    2
    53    26    27    1
    54    27    28    1
    55    27    29    1
    56    28    56    1
    57    28    57    1
    58    28    58    1
    59    29    30    2
    60    29    59    1
    61    30    60    1
    62    31    32    2
    63    33    61    1
    64    33    62    1
@<TRIPOS>SUBSTRUCTURE
     1 ZINC000466160459        1 TEMP              0 ****  ****    0 ROOT


##########                                Name:    ZINC000338927927
##########                DOCK_Rotatable_Bonds:                   9
##########                         Heavy_Atoms:                  23
##########                    Molecular_Weight:             336.286
##########                DOCK_Rotatable_Bonds:                   9
##########                       Formal_Charge:         -0.00999999
##########                     HBond_Acceptors:                   9
##########                        HBond_Donors:                   2
##########                         Heavy_Atoms:                  23
##########                          Grid_Score:          -28.247789
##########                     Grid_vdw_energy:          -27.361418
##########                      Grid_es_energy:           -0.886372
##########           Internal_energy_repulsive:           11.745542

@<TRIPOS>MOLECULE
ZINC000338927927
 39 39 1 0 0
SMALL
USER_CHARGES


@<TRIPOS>ATOM
      1 C1         -6.1795   -0.4248   51.3920 C.3     1  <0>        -0.1600
      2 C2         -6.6634    0.9291   51.9150 C.3     1  <0>        -0.1100
      3 C3         -6.3746    2.0112   50.8728 C.3     1  <0>        -0.1000
      4 H4         -6.4327    1.5784   49.8740 H       1  <0>         0.1400
      5 C5         -4.9935    2.5702   51.0985 C.2     1  <0>         0.5200
      6 O6         -4.6428    3.5742   50.5154 O.2     1  <0>        -0.4700
      7 N7         -4.1478    1.9544   51.9484 N.am    1  <0>        -0.6700
      8 C8         -2.8655    2.4734   52.1580 C.ar    1  <0>         0.2200
      9 C9         -1.8869    2.3217   51.1845 C.ar    1  <0>        -0.2300
     10 C10        -0.6180    2.8349   51.3912 C.ar    1  <0>         0.1700
     11 F11         0.3324    2.6861   50.4428 F       1  <0>        -0.1300
     12 C12        -0.3221    3.5004   52.5675 C.ar    1  <0>        -0.2500
     13 C13        -1.2983    3.6545   53.5441 C.ar    1  <0>         0.2600
     14 N14        -0.9990    4.3260   54.7317 N.pl3   1  <0>        -0.7400
     15 C15        -1.3298    3.7156   56.0218 C.3     1  <0>         0.0800
     16 C16        -1.2597    4.7772   57.1211 C.3     1  <0>         0.4500
     17 F17        -0.1816    5.6339   56.8742 F       1  <0>        -0.1800
     18 F18        -2.4483    5.5150   57.1335 F       1  <0>        -0.1700
     19 F19        -1.0852    4.1535   58.3613 F       1  <0>        -0.1800
     20 C20        -2.5725    3.1452   53.3365 C.ar    1  <0>        -0.2000
     21 C21        -7.3910    3.1164   51.0012 C.2     1  <0>         0.4600
     22 O22        -8.0109    3.2507   52.0296 O.2     1  <0>        -0.4600
     23 O23        -7.6077    3.9517   49.9731 O.3     1  <0>        -0.3500
     24 C24        -8.6019    4.9920   50.1671 C.3     1  <0>         0.0300
     25 H25        -5.1069   -0.3793   51.2034 H       1  <0>         0.0600
     26 H26        -6.3853   -1.1958   52.1346 H       1  <0>         0.0600
     27 H27        -6.7015   -0.6642   50.4656 H       1  <0>         0.0800
     28 H28        -7.7360    0.8833   52.1038 H       1  <0>         0.0800
     29 H29        -6.1413    1.1683   52.8415 H       1  <0>         0.0800
     30 H30        -4.4283    1.1515   52.4148 H       1  <0>         0.4200
     31 H31        -2.1159    1.8025   50.2657 H       1  <0>         0.1400
     32 H32         0.6685    3.9001   52.7269 H       1  <0>         0.1400
     33 H33        -0.5722    5.1964   54.7022 H       1  <0>         0.4100
     34 H34        -2.3372    3.3015   55.9801 H       1  <0>         0.1100
     35 H35        -0.6183    2.9191   56.2398 H       1  <0>         0.1100
     36 H36        -3.3325    3.2640   54.0945 H       1  <0>         0.1500
     37 H37        -8.6784    5.5949   49.2622 H       1  <0>         0.1000
     38 H38        -9.5681    4.5356   50.3823 H       1  <0>         0.0600
     39 H39        -8.3056    5.6264   51.0025 H       1  <0>         0.0600
@<TRIPOS>BOND
     1     1     2    1
     2     1    25    1
     3     1    26    1
     4     1    27    1
     5     2     3    1
     6     2    28    1
     7     2    29    1
     8     3     4    1
     9     3     5    1
    10     3    21    1
    11     5     6    2
    12     5     7   am
    13     7     8    1
    14     7    30    1
    15     8    20   ar
    16     8     9   ar
    17     9    10   ar
    18     9    31    1
    19    10    11    1
    20    10    12   ar
    21    12    13   ar
    22    12    32    1
    23    13    14    1
    24    13    20   ar
    25    14    15    1
    26    14    33    1
    27    15    16    1
    28    15    34    1
    29    15    35    1
    30    16    17    1
    31    16    18    1
    32    16    19    1
    33    20    36    1
    34    21    22    2
    35    21    23    1
    36    23    24    1
    37    24    37    1
    38    24    38    1
    39    24    39    1
@<TRIPOS>SUBSTRUCTURE
     1 <0>         1 TEMP              0 ****  ****    0 ROOT


##########                                Name:    ZINC000459459628
##########                DOCK_Rotatable_Bonds:                   8
##########                         Heavy_Atoms:                  27
##########                    Molecular_Weight:             377.366
##########                DOCK_Rotatable_Bonds:                   8
##########                       Formal_Charge:         -0.00999984
##########                     HBond_Acceptors:                   8
##########                        HBond_Donors:                   1
##########                         Heavy_Atoms:                  27
##########                          Grid_Score:          -28.239635
##########                     Grid_vdw_energy:          -26.908503
##########                      Grid_es_energy:           -1.331133
##########           Internal_energy_repulsive:           17.096300

@<TRIPOS>MOLECULE
ZINC000459459628
 45 46 1 0 0
SMALL
USER_CHARGES


@<TRIPOS>ATOM
      1 C1         -4.6532    3.6774   51.1237 C.3     1  ZINC000459459628   -0.1600
      2 C2         -4.3712    2.4496   51.9921 C.3     1  ZINC000459459628    0.1600
      3 H3         -3.9610    2.7687   52.9503 H       1  ZINC000459459628    0.1100
      4 C4         -3.3633    1.5434   51.2821 C.3     1  ZINC000459459628   -0.0900
      5 C5         -1.9930    2.1671   51.3491 C.ar    1  ZINC000459459628   -0.0500
      6 C6         -1.5117    2.6499   52.5515 C.ar    1  ZINC000459459628   -0.1200
      7 C7         -0.2547    3.2224   52.6145 C.ar    1  ZINC000459459628   -0.0900
      8 C8          0.5219    3.3124   51.4751 C.ar    1  ZINC000459459628   -0.1600
      9 C9          0.0409    2.8285   50.2700 C.ar    1  ZINC000459459628    0.1000
     10 F10         0.7993    2.9161   49.1554 F       1  ZINC000459459628   -0.1400
     11 C11        -1.2157    2.2508   50.2093 C.ar    1  ZINC000459459628   -0.1500
     12 N12        -5.6176    1.7128   52.2155 N.am    1  ZINC000459459628   -0.6200
     13 C13        -6.0769    0.7336   51.2273 C.3     1  ZINC000459459628    0.0700
     14 C14        -6.3417    1.9358   53.3301 C.2     1  ZINC000459459628    0.7100
     15 O15        -7.3769    1.3255   53.5150 O.2     1  ZINC000459459628   -0.5700
     16 N16        -5.9182    2.8356   54.2399 N.am    1  ZINC000459459628   -0.6800
     17 C17        -6.6713    3.0676   55.3993 C.ar    1  ZINC000459459628    0.1500
     18 C18        -8.0157    3.3756   55.3008 C.ar    1  ZINC000459459628   -0.0400
     19 C19        -8.7630    3.6057   56.4591 C.ar    1  ZINC000459459628   -0.0300
     20 C20       -10.1557    3.9245   56.3630 C.1     1  ZINC000459459628    0.2600
     21 N21       -11.2605    4.1775   56.2868 N.1     1  ZINC000459459628   -0.4100
     22 C22        -8.1484    3.5237   57.7111 C.ar    1  ZINC000459459628   -0.0500
     23 C23        -6.8074    3.2167   57.8025 C.ar    1  ZINC000459459628   -0.1700
     24 C24        -6.0658    2.9823   56.6536 C.ar    1  ZINC000459459628    0.1100
     25 O25        -4.7450    2.6802   56.7494 O.3     1  ZINC000459459628   -0.3200
     26 C26        -3.8422    3.7710   56.9419 C.3     1  ZINC000459459628    0.4100
     27 F27        -2.5354    3.3469   56.6780 F       1  ZINC000459459628   -0.1900
     28 F28        -4.1786    4.8138   56.0719 F       1  ZINC000459459628   -0.1900
     29 H29        -5.0634    3.3583   50.1656 H       1  ZINC000459459628    0.0600
     30 H30        -5.3713    4.3228   51.6295 H       1  ZINC000459459628    0.0600
     31 H31        -3.7259    4.2256   50.9575 H       1  ZINC000459459628    0.0700
     32 H32        -3.3434    0.5693   51.7707 H       1  ZINC000459459628    0.0800
     33 H33        -3.6563    1.4211   50.2394 H       1  ZINC000459459628    0.0900
     34 H34        -2.1182    2.5802   53.4424 H       1  ZINC000459459628    0.1300
     35 H35         0.1201    3.5996   53.5544 H       1  ZINC000459459628    0.1300
     36 H36         1.5035    3.7602   51.5244 H       1  ZINC000459459628    0.1300
     37 H37        -1.5916    1.8728   49.2701 H       1  ZINC000459459628    0.1300
     38 H38        -5.6672   -0.2469   51.4699 H       1  ZINC000459459628    0.0600
     39 H39        -7.1658    0.6862   51.2417 H       1  ZINC000459459628    0.0700
     40 H40        -5.7393    1.0330   50.2351 H       1  ZINC000459459628    0.0800
     41 H41        -5.0923    3.3225   54.0924 H       1  ZINC000459459628    0.4100
     42 H42        -8.4870    3.4385   54.3310 H       1  ZINC000459459628    0.1600
     43 H43        -8.7239    3.7011   58.6075 H       1  ZINC000459459628    0.1400
     44 H44        -6.3340    3.1544   58.7712 H       1  ZINC000459459628    0.1500
     45 H45        -3.9097    4.1211   57.9719 H       1  ZINC000459459628    0.1900
@<TRIPOS>BOND
     1     1     2    1
     2     1    29    1
     3     1    30    1
     4     1    31    1
     5     2     3    1
     6     2     4    1
     7     2    12    1
     8     4     5    1
     9     4    32    1
    10     4    33    1
    11     5    11   ar
    12     5     6   ar
    13     6     7   ar
    14     6    34    1
    15     7     8   ar
    16     7    35    1
    17     8     9   ar
    18     8    36    1
    19     9    10    1
    20     9    11   ar
    21    11    37    1
    22    12    13    1
    23    12    14   am
    24    13    38    1
    25    13    39    1
    26    13    40    1
    27    14    15    2
    28    14    16   am
    29    16    17    1
    30    16    41    1
    31    17    24   ar
    32    17    18   ar
    33    18    19   ar
    34    18    42    1
    35    19    20    1
    36    19    22   ar
    37    20    21    3
    38    22    23   ar
    39    22    43    1
    40    23    24   ar
    41    23    44    1
    42    24    25    1
    43    25    26    1
    44    26    27    1
    45    26    28    1
    46    26    45    1
@<TRIPOS>SUBSTRUCTURE
     1 ZINC000459459628        1 TEMP              0 ****  ****    0 ROOT


##########                                Name:    ZINC000330515179
##########                DOCK_Rotatable_Bonds:                   4
##########                         Heavy_Atoms:                  21
##########                    Molecular_Weight:             378.287
##########                DOCK_Rotatable_Bonds:                   4
##########                       Formal_Charge:           0.0200002
##########                     HBond_Acceptors:                   6
##########                        HBond_Donors:                   0
##########                         Heavy_Atoms:                  21
##########                          Grid_Score:          -28.238398
##########                     Grid_vdw_energy:          -28.007158
##########                      Grid_es_energy:           -0.231239
##########           Internal_energy_repulsive:            6.321965

@<TRIPOS>MOLECULE
ZINC000330515179
 41 42 1 0 0
SMALL
USER_CHARGES


@<TRIPOS>ATOM
      1 C1        -11.1502   -0.4328   53.2035 C.3     1  ZINC000330515179    0.0300
      2 O2         -9.9185   -0.8725   53.7796 O.3     1  ZINC000330515179   -0.3800
      3 C3         -8.8089   -0.8317   52.8801 C.3     1  ZINC000330515179    0.0700
      4 C4         -8.3100    0.6088   52.7507 C.3     1  ZINC000330515179    0.0800
      5 H5         -9.0182    1.1875   52.1576 H       1  ZINC000330515179    0.0800
      6 C6         -6.9399    0.6164   52.0631 C.3     1  ZINC000330515179    0.0900
      7 N7         -6.4001    1.9842   52.1189 N.am    1  ZINC000330515179   -1.0000
      8 S8         -5.8289    2.7315   50.7559 S.o2    1  ZINC000330515179    2.6900
      9 O9         -5.8501    1.7547   49.7241 O.2     1  ZINC000330515179   -0.9400
     10 O10        -6.5114    3.9744   50.6638 O.2     1  ZINC000330515179   -0.9500
     11 C11        -4.1334    3.1150   51.0432 C.ar    1  ZINC000330515179   -0.6700
     12 C12        -3.1732    2.1264   50.9345 C.ar    1  ZINC000330515179   -0.0100
     13 C13        -1.8429    2.4269   51.1593 C.ar    1  ZINC000330515179   -0.1100
     14 C14        -1.4724    3.7171   51.4931 C.ar    1  ZINC000330515179   -0.0400
     15 Br15        0.3475    4.1291   51.8001 Br      1  ZINC000330515179   -0.0300
     16 C16        -2.4334    4.7061   51.6017 C.ar    1  ZINC000330515179   -0.1100
     17 C17        -3.7629    4.4058   51.3715 C.ar    1  ZINC000330515179   -0.0100
     18 C18        -6.3824    2.6681   53.4217 C.3     1  ZINC000330515179    0.1000
     19 C19        -7.7797    2.5606   54.0432 C.3     1  ZINC000330515179    0.1000
     20 C20        -7.7431    3.0910   55.4778 C.3     1  ZINC000330515179   -0.1400
     21 C21        -8.7705    3.3849   53.2186 C.3     1  ZINC000330515179   -0.1800
     22 O22        -8.1883    1.1906   54.0509 O.3     1  ZINC000330515179   -0.3500
     23 H23       -11.9425   -0.4938   53.9496 H       1  ZINC000330515179    0.0900
     24 H24       -11.0462    0.5990   52.8675 H       1  ZINC000330515179    0.0400
     25 H25       -11.4012   -1.0680   52.3541 H       1  ZINC000330515179    0.0400
     26 H26        -8.0062   -1.4610   53.2645 H       1  ZINC000330515179    0.0600
     27 H27        -9.1206   -1.1976   51.9019 H       1  ZINC000330515179    0.0700
     28 H28        -6.2656   -0.0659   52.5806 H       1  ZINC000330515179    0.0900
     29 H29        -7.0492    0.3070   51.0236 H       1  ZINC000330515179    0.1000
     30 H30        -3.4627    1.1189   50.6743 H       1  ZINC000330515179    0.1500
     31 H31        -1.0930    1.6544   51.0748 H       1  ZINC000330515179    0.1500
     32 H32        -2.1446    5.7136   51.8621 H       1  ZINC000330515179    0.1500
     33 H33        -4.5133    5.1778   51.4563 H       1  ZINC000330515179    0.1500
     34 H34        -5.6520    2.1924   54.0761 H       1  ZINC000330515179    0.0900
     35 H35        -6.1225    3.7174   53.2820 H       1  ZINC000330515179    0.1000
     36 H36        -7.4280    4.1344   55.4715 H       1  ZINC000330515179    0.0800
     37 H37        -8.7369    3.0142   55.9190 H       1  ZINC000330515179    0.0700
     38 H38        -7.0383    2.5022   56.0650 H       1  ZINC000330515179    0.0700
     39 H39        -8.7974    3.0053   52.1972 H       1  ZINC000330515179    0.0600
     40 H40        -9.7636    3.3079   53.6611 H       1  ZINC000330515179    0.0700
     41 H41        -8.4563    4.4286   53.2104 H       1  ZINC000330515179    0.0700
@<TRIPOS>BOND
     1     1     2    1
     2     1    23    1
     3     1    24    1
     4     1    25    1
     5     2     3    1
     6     3     4    1
     7     3    26    1
     8     3    27    1
     9     4     5    1
    10     4    22    1
    11     4     6    1
    12     6     7    1
    13     6    28    1
    14     6    29    1
    15     7     8   am
    16     7    18    1
    17     8     9    2
    18     8    10    2
    19     8    11    1
    20    11    17   ar
    21    11    12   ar
    22    12    13   ar
    23    12    30    1
    24    13    14   ar
    25    13    31    1
    26    14    15    1
    27    14    16   ar
    28    16    17   ar
    29    16    32    1
    30    17    33    1
    31    18    19    1
    32    18    34    1
    33    18    35    1
    34    19    20    1
    35    19    21    1
    36    19    22    1
    37    20    36    1
    38    20    37    1
    39    20    38    1
    40    21    39    1
    41    21    40    1
    42    21    41    1
@<TRIPOS>SUBSTRUCTURE
     1 ZINC000330515179        1 TEMP              0 ****  ****    0 ROOT


##########                                Name:    ZINC000680410869
##########                DOCK_Rotatable_Bonds:                   6
##########                         Heavy_Atoms:                  24
##########                    Molecular_Weight:             335.354
##########                DOCK_Rotatable_Bonds:                   6
##########                       Formal_Charge:        -1.04308e-07
##########                     HBond_Acceptors:                   7
##########                        HBond_Donors:                   0
##########                         Heavy_Atoms:                  24
##########                          Grid_Score:          -28.216801
##########                     Grid_vdw_energy:          -26.427526
##########                      Grid_es_energy:           -1.789275
##########           Internal_energy_repulsive:           11.494009

@<TRIPOS>MOLECULE
ZINC000680410869
 43 45 1 0 0
SMALL
USER_CHARGES


@<TRIPOS>ATOM
      1 O1         -6.3618    5.9095   51.0005 O.2     1  ZINC000680410869   -0.5200
      2 C2         -6.7891    4.8127   50.6963 C.2     1  ZINC000680410869    0.6100
      3 C3         -8.2296    4.6306   50.4249 C.2     1  ZINC000680410869    0.0100
      4 N4         -9.1741    4.4091   51.3172 N.2     1  ZINC000680410869   -0.2500
      5 N5        -10.3141    4.3008   50.7349 N.pl3   1  ZINC000680410869   -0.3500
      6 C6        -11.5848    4.0530   51.4205 C.3     1  ZINC000680410869    0.5000
      7 F7        -11.5903    4.7225   52.6490 F       1  ZINC000680410869   -0.1600
      8 F8        -12.6401    4.5205   50.6300 F       1  ZINC000680410869   -0.1700
      9 C9        -10.1727    4.4488   49.4002 C.2     1  ZINC000680410869    0.0100
     10 C10        -8.8589    4.6665   49.1579 C.2     1  ZINC000680410869   -0.1700
     11 N11        -5.9476    3.7642   50.6013 N.am    1  ZINC000680410869   -0.6000
     12 C12        -6.4404    2.4286   50.2288 C.3     1  ZINC000680410869    0.0800
     13 C13        -5.9167    1.4167   51.2542 C.3     1  ZINC000680410869    0.0500
     14 O14        -4.4993    1.5595   51.3750 O.3     1  ZINC000680410869   -0.3700
     15 C15        -4.0791    2.8367   51.8609 C.3     1  ZINC000680410869    0.0800
     16 H16        -4.5407    3.0275   52.8298 H       1  ZINC000680410869    0.0600
     17 C17        -2.5563    2.8514   52.0086 C.3     1  ZINC000680410869   -0.1000
     18 C18        -1.9305    1.9670   50.9283 C.3     1  ZINC000680410869   -0.0800
     19 C19        -0.4750    2.3234   50.7682 C.ar    1  ZINC000680410869   -0.0800
     20 C20         0.1150    2.2750   49.5190 C.ar    1  ZINC000680410869   -0.1200
     21 C21         1.4501    2.6019   49.3722 C.ar    1  ZINC000680410869   -0.1200
     22 C22         2.1950    2.9778   50.4743 C.ar    1  ZINC000680410869   -0.1300
     23 C23         1.6047    3.0270   51.7233 C.ar    1  ZINC000680410869   -0.1200
     24 C24         0.2686    2.7042   51.8696 C.ar    1  ZINC000680410869   -0.1200
     25 C25        -4.5079    3.9226   50.8610 C.3     1  ZINC000680410869    0.0600
     26 H26       -11.7038    2.9828   51.5895 H       1  ZINC000680410869    0.1700
     27 H27       -10.9614    4.4057   48.6637 H       1  ZINC000680410869    0.1900
     28 H28        -8.3889    4.8280   48.1990 H       1  ZINC000680410869    0.1700
     29 H29        -7.5304    2.4252   50.2332 H       1  ZINC000680410869    0.1000
     30 H30        -6.0760    2.1668   49.2354 H       1  ZINC000680410869    0.0800
     31 H31        -6.3849    1.6024   52.2209 H       1  ZINC000680410869    0.0600
     32 H32        -6.1537    0.4059   50.9222 H       1  ZINC000680410869    0.1100
     33 H33        -2.1905    3.8724   51.8992 H       1  ZINC000680410869    0.0800
     34 H34        -2.2830    2.4711   52.9929 H       1  ZINC000680410869    0.0800
     35 H35        -2.0183    0.9203   51.2198 H       1  ZINC000680410869    0.0700
     36 H36        -2.4496    2.1256   49.9831 H       1  ZINC000680410869    0.0800
     37 H37        -0.4670    1.9814   48.6579 H       1  ZINC000680410869    0.1200
     38 H38         1.9112    2.5634   48.3963 H       1  ZINC000680410869    0.1200
     39 H39         3.2383    3.2324   50.3596 H       1  ZINC000680410869    0.1200
     40 H40         2.1868    3.3203   52.5845 H       1  ZINC000680410869    0.1200
     41 H41        -0.1926    2.7427   52.8453 H       1  ZINC000680410869    0.1200
     42 H42        -3.9472    3.8092   49.9332 H       1  ZINC000680410869    0.0800
     43 H43        -4.3193    4.9083   51.2863 H       1  ZINC000680410869    0.1300
@<TRIPOS>BOND
     1     1     2    2
     2     2     3    1
     3     2    11   am
     4     3    10    1
     5     3     4    2
     6     4     5    1
     7     5     6    1
     8     5     9    1
     9     6     7    1
    10     6     8    1
    11     6    26    1
    12     9    10    2
    13     9    27    1
    14    10    28    1
    15    11    25    1
    16    11    12    1
    17    12    13    1
    18    12    29    1
    19    12    30    1
    20    13    14    1
    21    13    31    1
    22    13    32    1
    23    14    15    1
    24    15    16    1
    25    15    17    1
    26    15    25    1
    27    17    18    1
    28    17    33    1
    29    17    34    1
    30    18    19    1
    31    18    35    1
    32    18    36    1
    33    19    24   ar
    34    19    20   ar
    35    20    21   ar
    36    20    37    1
    37    21    22   ar
    38    21    38    1
    39    22    23   ar
    40    22    39    1
    41    23    24   ar
    42    23    40    1
    43    24    41    1
    44    25    42    1
    45    25    43    1
@<TRIPOS>SUBSTRUCTURE
     1 ZINC000680410869        1 TEMP              0 ****  ****    0 ROOT


##########                                Name:    ZINC000245764166
##########                DOCK_Rotatable_Bonds:                   8
##########                         Heavy_Atoms:                  26
##########                    Molecular_Weight:             359.512
##########                DOCK_Rotatable_Bonds:                   8
##########                       Formal_Charge:          -0.0100008
##########                     HBond_Acceptors:                   5
##########                        HBond_Donors:                   2
##########                         Heavy_Atoms:                  26
##########                          Grid_Score:          -28.210665
##########                     Grid_vdw_energy:          -28.063339
##########                      Grid_es_energy:           -0.147326
##########           Internal_energy_repulsive:           28.501944

@<TRIPOS>MOLECULE
ZINC000245764166
 59 61 1 0 0
SMALL
USER_CHARGES


@<TRIPOS>ATOM
      1 C1        -11.2120   -1.2959   56.3385 C.3     1  ZINC000245764166    0.0200
      2 N2        -11.9658   -0.5438   55.3265 N.3     1  ZINC000245764166   -0.5300
      3 C3        -13.1575    0.0819   55.9150 C.3     1  ZINC000245764166    0.0600
      4 C4        -14.0833   -0.9886   56.4326 C.ar    1  ZINC000245764166   -0.0800
      5 C5        -13.9790   -1.4184   57.7423 C.ar    1  ZINC000245764166   -0.1000
      6 C6        -14.8281   -2.4004   58.2172 C.ar    1  ZINC000245764166   -0.1200
      7 C7        -15.7818   -2.9523   57.3825 C.ar    1  ZINC000245764166   -0.1200
      8 C8        -15.8867   -2.5220   56.0730 C.ar    1  ZINC000245764166   -0.1200
      9 C9        -15.0403   -1.5369   55.5994 C.ar    1  ZINC000245764166   -0.1200
     10 C10       -11.1137    0.4582   54.6724 C.3     1  ZINC000245764166    0.0500
     11 C11       -11.0667    0.1836   53.1679 C.3     1  ZINC000245764166    0.1900
     12 C12       -10.3685   -1.1541   52.9151 C.3     1  ZINC000245764166   -0.1600
     13 C13       -12.4920    0.1276   52.6148 C.3     1  ZINC000245764166   -0.1500
     14 N14       -10.3250    1.2555   52.4990 N.am    1  ZINC000245764166   -0.7400
     15 C15        -9.0620    1.5375   52.8753 C.2     1  ZINC000245764166    0.7000
     16 O16        -8.5385    0.9035   53.7710 O.2     1  ZINC000245764166   -0.5800
     17 N17        -8.3792    2.5225   52.2588 N.am    1  ZINC000245764166   -0.7500
     18 C18        -7.0069    2.8303   52.6691 C.3     1  ZINC000245764166    0.1800
     19 H19        -6.5309    1.9222   53.0390 H       1  ZINC000245764166    0.0900
     20 C20        -7.0377    3.8718   53.7848 C.3     1  ZINC000245764166   -0.1300
     21 C21        -5.6001    4.1387   54.2444 C.3     1  ZINC000245764166   -0.1100
     22 C22        -4.8237    4.7389   53.0725 C.3     1  ZINC000245764166   -0.1100
     23 C23        -4.8156    3.8079   51.8829 C.3     1  ZINC000245764166    0.0900
     24 H24        -4.3570    4.3180   51.0359 H       1  ZINC000245764166    0.0600
     25 O25        -4.1058    2.5867   52.1302 O.3     1  ZINC000245764166   -0.3600
     26 C26        -4.4879    1.6799   51.0769 C.3     1  ZINC000245764166    0.0500
     27 C27        -5.8838    2.1120   50.5836 C.3     1  ZINC000245764166   -0.1500
     28 C28        -6.2253    3.3525   51.4617 C.3     1  ZINC000245764166   -0.1300
     29 H29        -6.7644    4.1218   50.9088 H       1  ZINC000245764166    0.1000
     30 H30       -11.8618   -2.0424   56.7952 H       1  ZINC000245764166    0.0800
     31 H31       -10.3646   -1.7923   55.8658 H       1  ZINC000245764166    0.0700
     32 H32       -10.8503   -0.6110   57.1055 H       1  ZINC000245764166    0.0200
     33 H33       -12.8580    0.7319   56.7372 H       1  ZINC000245764166    0.0400
     34 H34       -13.6715    0.6706   55.1552 H       1  ZINC000245764166    0.1100
     35 H35       -13.2340   -0.9871   58.3945 H       1  ZINC000245764166    0.1200
     36 H36       -14.7463   -2.7367   59.2402 H       1  ZINC000245764166    0.1200
     37 H37       -16.4448   -3.7200   57.7533 H       1  ZINC000245764166    0.1200
     38 H38       -16.6315   -2.9534   55.4208 H       1  ZINC000245764166    0.1200
     39 H39       -15.1222   -1.2006   54.5764 H       1  ZINC000245764166    0.1200
     40 H40       -11.5228    1.4532   54.8475 H       1  ZINC000245764166    0.0400
     41 H41       -10.1058    0.4022   55.0835 H       1  ZINC000245764166    0.1000
     42 H42       -10.9204   -1.9516   53.4129 H       1  ZINC000245764166    0.0700
     43 H43       -10.3350   -1.3497   51.8433 H       1  ZINC000245764166    0.0800
     44 H44        -9.3530   -1.1143   53.3092 H       1  ZINC000245764166    0.0500
     45 H45       -12.9474    1.1156   52.6833 H       1  ZINC000245764166    0.0600
     46 H46       -12.4649   -0.1884   51.5719 H       1  ZINC000245764166    0.0800
     47 H47       -13.0792   -0.5842   53.1950 H       1  ZINC000245764166    0.0600
     48 H48       -10.7430    1.7622   51.7851 H       1  ZINC000245764166    0.3900
     49 H49        -8.7963    3.0276   51.5434 H       1  ZINC000245764166    0.3900
     50 H50        -7.4796    4.7954   53.4110 H       1  ZINC000245764166    0.0600
     51 H51        -7.6252    3.4944   54.6216 H       1  ZINC000245764166    0.0700
     52 H52        -5.6055    4.8399   55.0790 H       1  ZINC000245764166    0.0700
     53 H53        -5.1336    3.2032   54.5534 H       1  ZINC000245764166    0.0700
     54 H54        -5.2868    5.6824   52.7838 H       1  ZINC000245764166    0.0800
     55 H55        -3.7965    4.9278   53.3846 H       1  ZINC000245764166    0.0700
     56 H56        -3.7708    1.7397   50.2583 H       1  ZINC000245764166    0.0600
     57 H57        -4.5299    0.6611   51.4620 H       1  ZINC000245764166    0.0800
     58 H58        -5.8484    2.3880   49.5297 H       1  ZINC000245764166    0.0800
     59 H59        -6.6104    1.3161   50.7471 H       1  ZINC000245764166    0.0800
@<TRIPOS>BOND
     1     1     2    1
     2     1    30    1
     3     1    31    1
     4     1    32    1
     5     2     3    1
     6     2    10    1
     7     3     4    1
     8     3    33    1
     9     3    34    1
    10     4     9   ar
    11     4     5   ar
    12     5     6   ar
    13     5    35    1
    14     6     7   ar
    15     6    36    1
    16     7     8   ar
    17     7    37    1
    18     8     9   ar
    19     8    38    1
    20     9    39    1
    21    10    11    1
    22    10    40    1
    23    10    41    1
    24    11    12    1
    25    11    13    1
    26    11    14    1
    27    12    42    1
    28    12    43    1
    29    12    44    1
    30    13    45    1
    31    13    46    1
    32    13    47    1
    33    14    15   am
    34    14    48    1
    35    15    16    2
    36    15    17   am
    37    17    18    1
    38    17    49    1
    39    18    19    1
    40    18    28    1
    41    18    20    1
    42    20    21    1
    43    20    50    1
    44    20    51    1
    45    21    22    1
    46    21    52    1
    47    21    53    1
    48    22    23    1
    49    22    54    1
    50    22    55    1
    51    23    24    1
    52    23    28    1
    53    23    25    1
    54    25    26    1
    55    26    27    1
    56    26    56    1
    57    26    57    1
    58    27    28    1
    59    27    58    1
    60    27    59    1
    61    28    29    1
@<TRIPOS>SUBSTRUCTURE
     1 ZINC000245764166        1 TEMP              0 ****  ****    0 ROOT


##########                                Name:    ZINC001356153960
##########                DOCK_Rotatable_Bonds:                   8
##########                         Heavy_Atoms:                  24
##########                    Molecular_Weight:             334.366
##########                DOCK_Rotatable_Bonds:                   8
##########                       Formal_Charge:           0.0100003
##########                     HBond_Acceptors:                   6
##########                        HBond_Donors:                   1
##########                         Heavy_Atoms:                  24
##########                          Grid_Score:          -28.207518
##########                     Grid_vdw_energy:          -27.965576
##########                      Grid_es_energy:           -0.241941
##########           Internal_energy_repulsive:           18.606295

@<TRIPOS>MOLECULE
ZINC001356153960
 44 46 1 0 0
SMALL
USER_CHARGES


@<TRIPOS>ATOM
      1 O1         -7.6959    1.5402   54.2431 O.2     1  ZINC001356153960   -0.5200
      2 C2         -8.3186    2.0052   53.3111 C.2     1  ZINC001356153960    0.5100
      3 N3         -9.6649    2.0506   53.3559 N.am    1  ZINC001356153960   -0.7000
      4 C4        -10.3761    1.5443   54.5323 C.3     1  ZINC001356153960    0.1300
      5 C5        -11.6678    0.8541   54.0894 C.3     1  ZINC001356153960   -0.0800
      6 H6        -12.2393    0.5264   54.9578 H       1  ZINC001356153960    0.0900
      7 C7        -12.4959    1.7853   53.2349 C.2     1  ZINC001356153960   -0.1700
      8 C8        -12.9597    1.1691   52.1819 C.2     1  ZINC001356153960   -0.1600
      9 C9        -12.5182   -0.2758   52.1585 C.3     1  ZINC001356153960   -0.1000
     10 C10       -11.3485   -0.3476   53.1701 C.3     1  ZINC001356153960   -0.1200
     11 C11        -7.5931    2.5217   52.1110 C.2     1  ZINC001356153960    0.5100
     12 O12        -7.9096    3.5864   51.6222 O.2     1  ZINC001356153960   -0.5100
     13 N13        -6.5872    1.8050   51.5715 N.am    1  ZINC001356153960   -0.5500
     14 C14        -5.8759    2.3113   50.3950 C.3     1  ZINC001356153960    0.1300
     15 C15        -4.5419    2.8711   50.8169 C.ar    1  ZINC001356153960   -0.1600
     16 C16        -3.4234    2.0597   50.8242 C.ar    1  ZINC001356153960   -0.0300
     17 C17        -2.1981    2.5734   51.2055 C.ar    1  ZINC001356153960   -0.1700
     18 C18        -2.0922    3.8988   51.5915 C.ar    1  ZINC001356153960    0.1400
     19 F19        -0.8955    4.3993   51.9690 F       1  ZINC001356153960   -0.1300
     20 C20        -3.2133    4.7112   51.5900 C.ar    1  ZINC001356153960   -0.2000
     21 C21        -4.4385    4.1973   51.2025 C.ar    1  ZINC001356153960    0.1500
     22 F22        -5.5333    4.9889   51.2009 F       1  ZINC001356153960   -0.1200
     23 C23        -6.2048    0.5197   52.1616 C.3     1  ZINC001356153960    0.0700
     24 C24        -6.0752   -0.6792   51.2199 C.3     1  ZINC001356153960   -0.1900
     25 C25        -7.2596   -0.5883   52.1855 C.3     1  ZINC001356153960   -0.1800
     26 H26       -10.1628    2.4186   52.6092 H       1  ZINC001356153960    0.4100
     27 H27        -9.7442    0.8292   55.0591 H       1  ZINC001356153960    0.0800
     28 H28       -10.6170    2.3744   55.1964 H       1  ZINC001356153960    0.0800
     29 H29       -12.6796    2.8243   53.4651 H       1  ZINC001356153960    0.1200
     30 H30       -13.5776    1.6313   51.4263 H       1  ZINC001356153960    0.1300
     31 H31       -13.3328   -0.9269   52.4756 H       1  ZINC001356153960    0.0800
     32 H32       -12.1781   -0.5529   51.1606 H       1  ZINC001356153960    0.0700
     33 H33       -10.3897   -0.2132   52.6692 H       1  ZINC001356153960    0.0800
     34 H34       -11.3685   -1.2836   53.7284 H       1  ZINC001356153960    0.0800
     35 H35        -5.7209    1.4979   49.6863 H       1  ZINC001356153960    0.0900
     36 H36        -6.4668    3.0966   49.9234 H       1  ZINC001356153960    0.1400
     37 H37        -3.5059    1.0245   50.5279 H       1  ZINC001356153960    0.1600
     38 H38        -1.3238    1.9393   51.2070 H       1  ZINC001356153960    0.1400
     39 H39        -3.1318    5.7451   51.8911 H       1  ZINC001356153960    0.1500
     40 H40        -5.5144    0.5757   53.0032 H       1  ZINC001356153960    0.1400
     41 H41        -6.2744   -0.5118   50.1615 H       1  ZINC001356153960    0.1400
     42 H42        -5.2998   -1.4122   51.4424 H       1  ZINC001356153960    0.0900
     43 H43        -7.2628   -1.2616   53.0427 H       1  ZINC001356153960    0.1000
     44 H44        -8.2380   -0.3610   51.7622 H       1  ZINC001356153960    0.0900
@<TRIPOS>BOND
     1     1     2    2
     2     2     3   am
     3     2    11    1
     4     3     4    1
     5     3    26    1
     6     4     5    1
     7     4    27    1
     8     4    28    1
     9     5     6    1
    10     5    10    1
    11     5     7    1
    12     7     8    2
    13     7    29    1
    14     8     9    1
    15     8    30    1
    16     9    10    1
    17     9    31    1
    18     9    32    1
    19    10    33    1
    20    10    34    1
    21    11    12    2
    22    11    13   am
    23    13    14    1
    24    13    23    1
    25    14    15    1
    26    14    35    1
    27    14    36    1
    28    15    21   ar
    29    15    16   ar
    30    16    17   ar
    31    16    37    1
    32    17    18   ar
    33    17    38    1
    34    18    19    1
    35    18    20   ar
    36    20    21   ar
    37    20    39    1
    38    21    22    1
    39    23    25    1
    40    23    24    1
    41    23    40    1
    42    24    25    1
    43    24    41    1
    44    24    42    1
    45    25    43    1
    46    25    44    1
@<TRIPOS>SUBSTRUCTURE
     1 ZINC001356153960        1 TEMP              0 ****  ****    0 ROOT


##########                                Name:    ZINC001300804061
##########                DOCK_Rotatable_Bonds:                   5
##########                         Heavy_Atoms:                  27
##########                    Molecular_Weight:              390.55
##########                DOCK_Rotatable_Bonds:                   5
##########                       Formal_Charge:                0.01
##########                     HBond_Acceptors:                   7
##########                        HBond_Donors:                   0
##########                         Heavy_Atoms:                  27
##########                          Grid_Score:          -28.167200
##########                     Grid_vdw_energy:          -28.397242
##########                      Grid_es_energy:            0.230042
##########           Internal_energy_repulsive:            7.744351

@<TRIPOS>MOLECULE
ZINC001300804061
 57 60 1 0 0
SMALL
USER_CHARGES


@<TRIPOS>ATOM
      1 C1        -14.7756    0.6391   52.0519 C.3     1  ZINC001300804061    0.0300
      2 O2        -13.8984   -0.3554   52.5844 O.3     1  ZINC001300804061   -0.3800
      3 C3        -12.8604    0.1695   53.4145 C.3     1  ZINC001300804061    0.1000
      4 H4        -12.9782    1.2493   53.5055 H       1  ZINC001300804061    0.0700
      5 C5        -11.4990   -0.1451   52.7904 C.3     1  ZINC001300804061    0.0500
      6 N6        -10.4312    0.3756   53.6536 N.3     1  ZINC001300804061   -0.4600
      7 C7         -9.1916    0.2237   53.0561 C.2     1  ZINC001300804061    0.3600
      8 N8         -8.6026   -0.9130   52.7631 N.2     1  ZINC001300804061   -0.3000
      9 N9         -7.4613   -0.6921   52.2154 N.2     1  ZINC001300804061   -0.2500
     10 C10        -7.2510    0.6029   52.1248 C.2     1  ZINC001300804061    0.2600
     11 C11        -6.0623    1.2590   51.5578 C.2     1  ZINC001300804061    0.0400
     12 C12        -5.9107    1.6612   50.2648 C.2     1  ZINC001300804061   -0.1300
     13 C13        -4.6283    2.2351   50.1667 C.2     1  ZINC001300804061   -0.2100
     14 C14        -4.0653    2.1570   51.3888 C.2     1  ZINC001300804061    0.0100
     15 C15        -2.6889    2.6499   51.7545 C.3     1  ZINC001300804061   -0.0800
     16 O16        -4.9359    1.5723   52.2282 O.3     1  ZINC001300804061   -0.1700
     17 N17        -8.3570    1.2284   52.6564 N.pl3   1  ZINC001300804061   -0.4600
     18 C18        -8.5866    2.6704   52.7758 C.3     1  ZINC001300804061    0.1200
     19 C19        -8.5029    3.0800   54.2476 C.3     1  ZINC001300804061   -0.1000
     20 H20        -9.1694    2.4502   54.8369 H       1  ZINC001300804061    0.0900
     21 C21        -8.9252    4.5391   54.3921 C.3     1  ZINC001300804061   -0.1200
     22 C22        -9.1110    4.9043   55.8619 C.3     1  ZINC001300804061   -0.1200
     23 C23        -7.7511    4.9561   56.5633 C.3     1  ZINC001300804061   -0.0800
     24 S24        -7.0029    3.3004   56.5160 S.3     1  ZINC001300804061   -0.2600
     25 C25        -7.0654    2.9026   54.7435 C.3     1  ZINC001300804061   -0.0700
     26 C26       -10.4595   -0.2618   54.9762 C.3     1  ZINC001300804061    0.0600
     27 C27       -11.7899    0.0494   55.6656 C.3     1  ZINC001300804061   -0.1100
     28 C28       -12.9417   -0.4725   54.8022 C.3     1  ZINC001300804061   -0.0900
     29 H29       -12.8638   -1.5555   54.7068 H       1  ZINC001300804061    0.0800
     30 C30       -14.2762   -0.1118   55.4578 C.3     1  ZINC001300804061   -0.1400
     31 H31       -15.2577    1.1741   52.8702 H       1  ZINC001300804061    0.0400
     32 H32       -14.2034    1.3414   51.4459 H       1  ZINC001300804061    0.0400
     33 H33       -15.5350    0.1603   51.4337 H       1  ZINC001300804061    0.0900
     34 H34       -11.3878   -1.2245   52.6863 H       1  ZINC001300804061    0.0700
     35 H35       -11.4326    0.3230   51.8083 H       1  ZINC001300804061    0.0800
     36 H36        -6.6338    1.5593   49.4691 H       1  ZINC001300804061    0.1600
     37 H37        -4.1807    2.6579   49.2795 H       1  ZINC001300804061    0.1600
     38 H38        -2.7500    3.6877   52.0825 H       1  ZINC001300804061    0.0900
     39 H39        -2.2859    2.0372   52.5609 H       1  ZINC001300804061    0.0800
     40 H40        -2.0355    2.5816   50.8848 H       1  ZINC001300804061    0.0900
     41 H41        -7.8287    3.2074   52.2055 H       1  ZINC001300804061    0.1100
     42 H42        -9.5751    2.9143   52.3864 H       1  ZINC001300804061    0.1000
     43 H43        -8.1580    5.1795   53.9572 H       1  ZINC001300804061    0.0700
     44 H44        -9.8648    4.6949   53.8620 H       1  ZINC001300804061    0.0800
     45 H45        -9.5929    5.8793   55.9344 H       1  ZINC001300804061    0.0800
     46 H46        -9.7388    4.1553   56.3444 H       1  ZINC001300804061    0.0800
     47 H47        -7.1019    5.6650   56.0495 H       1  ZINC001300804061    0.0800
     48 H48        -7.8862    5.2663   57.5995 H       1  ZINC001300804061    0.1100
     49 H49        -6.7529    1.8697   54.5898 H       1  ZINC001300804061    0.1000
     50 H50        -6.4026    3.5721   54.1954 H       1  ZINC001300804061    0.0900
     51 H51       -10.3532   -1.3406   54.8619 H       1  ZINC001300804061    0.0600
     52 H52        -9.6382    0.1218   55.5819 H       1  ZINC001300804061    0.0800
     53 H53       -11.8169   -0.4367   56.6408 H       1  ZINC001300804061    0.0800
     54 H54       -11.8905    1.1272   55.7928 H       1  ZINC001300804061    0.0800
     55 H55       -14.3543    0.9714   55.5508 H       1  ZINC001300804061    0.0500
     56 H56       -15.0956   -0.4836   54.8426 H       1  ZINC001300804061    0.0600
     57 H57       -14.3297   -0.5662   56.4471 H       1  ZINC001300804061    0.0600
@<TRIPOS>BOND
     1     1     2    1
     2     1    31    1
     3     1    32    1
     4     1    33    1
     5     2     3    1
     6     3     4    1
     7     3    28    1
     8     3     5    1
     9     5     6    1
    10     5    34    1
    11     5    35    1
    12     6     7    1
    13     6    26    1
    14     7    17    1
    15     7     8    2
    16     8     9    1
    17     9    10    2
    18    10    11    1
    19    10    17    1
    20    11    16    1
    21    11    12    2
    22    12    13    1
    23    12    36    1
    24    13    14    2
    25    13    37    1
    26    14    15    1
    27    14    16    1
    28    15    38    1
    29    15    39    1
    30    15    40    1
    31    17    18    1
    32    18    19    1
    33    18    41    1
    34    18    42    1
    35    19    20    1
    36    19    25    1
    37    19    21    1
    38    21    22    1
    39    21    43    1
    40    21    44    1
    41    22    23    1
    42    22    45    1
    43    22    46    1
    44    23    24    1
    45    23    47    1
    46    23    48    1
    47    24    25    1
    48    25    49    1
    49    25    50    1
    50    26    27    1
    51    26    51    1
    52    26    52    1
    53    27    28    1
    54    27    53    1
    55    27    54    1
    56    28    29    1
    57    28    30    1
    58    30    55    1
    59    30    56    1
    60    30    57    1
@<TRIPOS>SUBSTRUCTURE
     1 ZINC001300804061        1 TEMP              0 ****  ****    0 ROOT


##########                                Name:    ZINC000894043060
##########                DOCK_Rotatable_Bonds:                  11
##########                         Heavy_Atoms:                  26
##########                    Molecular_Weight:             396.812
##########                DOCK_Rotatable_Bonds:                  11
##########                       Formal_Charge:          -0.0199999
##########                     HBond_Acceptors:                   9
##########                        HBond_Donors:                   2
##########                         Heavy_Atoms:                  26
##########                          Grid_Score:          -28.150440
##########                     Grid_vdw_energy:          -27.054005
##########                      Grid_es_energy:           -1.096436
##########           Internal_energy_repulsive:           11.599833

@<TRIPOS>MOLECULE
ZINC000894043060
 47 47 1 0 0
SMALL
USER_CHARGES


@<TRIPOS>ATOM
      1 C1        -11.5131   -0.5580   54.6668 C.3     1  ZINC000894043060   -0.1700
      2 C2        -10.7050   -0.3166   53.3902 C.3     1  ZINC000894043060    0.1000
      3 H3        -10.3826   -1.2727   52.9779 H       1  ZINC000894043060    0.1100
      4 N4         -9.5303    0.5010   53.7031 N.am    1  ZINC000894043060   -0.7300
      5 C5         -8.3903    0.3387   53.0029 C.2     1  ZINC000894043060    0.5200
      6 O6         -8.3363   -0.4853   52.1146 O.2     1  ZINC000894043060   -0.5200
      7 C7         -7.1826    1.1811   53.3237 C.3     1  ZINC000894043060   -0.1400
      8 C8         -7.0041    2.2492   52.2429 C.3     1  ZINC000894043060   -0.0200
      9 C9         -7.5805    3.5772   52.7381 C.3     1  ZINC000894043060   -0.1400
     10 C10        -7.9678    4.4285   51.5564 C.2     1  ZINC000894043060    0.5200
     11 O11        -7.1120    4.9984   50.9132 O.2     1  ZINC000894043060   -0.5200
     12 N12        -9.2652    4.5566   51.2145 N.am    1  ZINC000894043060   -0.7300
     13 C13        -9.6415    5.3828   50.0647 C.3     1  ZINC000894043060    0.1000
     14 H14        -8.9459    6.2170   49.9735 H       1  ZINC000894043060    0.1200
     15 C15        -9.5929    4.5366   48.7909 C.3     1  ZINC000894043060   -0.1700
     16 C16       -11.0595    5.9209   50.2658 C.3     1  ZINC000894043060    0.2600
     17 F17       -11.9524    4.8503   50.3828 F       1  ZINC000894043060   -0.1900
     18 F18       -11.1040    6.6947   51.4304 F       1  ZINC000894043060   -0.2000
     19 C19        -5.5373    2.4193   51.9420 C.ar    1  ZINC000894043060   -0.0600
     20 C20        -5.0553    2.1440   50.6759 C.ar    1  ZINC000894043060   -0.1200
     21 C21        -3.7101    2.2998   50.3993 C.ar    1  ZINC000894043060   -0.1200
     22 C22        -2.8459    2.7313   51.3899 C.ar    1  ZINC000894043060   -0.0400
     23 Cl23       -1.1562    2.9277   51.0432 Cl      1  ZINC000894043060   -0.0800
     24 C24        -3.3290    3.0067   52.6568 C.ar    1  ZINC000894043060   -0.1100
     25 C25        -4.6753    2.8559   52.9307 C.ar    1  ZINC000894043060   -0.0400
     26 C26       -11.5760    0.4130   52.3655 C.3     1  ZINC000894043060    0.2600
     27 F27       -12.6976   -0.3678   52.0668 F       1  ZINC000894043060   -0.2000
     28 F28       -11.9895    1.6403   52.8946 F       1  ZINC000894043060   -0.1900
     29 H29       -11.8354    0.3981   55.0791 H       1  ZINC000894043060    0.0600
     30 H30       -12.3870   -1.1664   54.4339 H       1  ZINC000894043060    0.0800
     31 H31       -10.8926   -1.0778   55.3967 H       1  ZINC000894043060    0.0800
     32 H32        -9.5732    1.1593   54.4144 H       1  ZINC000894043060    0.4000
     33 H33        -7.3224    1.6631   54.2912 H       1  ZINC000894043060    0.1000
     34 H34        -6.2963    0.5474   53.3580 H       1  ZINC000894043060    0.1000
     35 H35        -7.5273    1.9411   51.3376 H       1  ZINC000894043060    0.1000
     36 H36        -8.4609    3.3850   53.3514 H       1  ZINC000894043060    0.1000
     37 H37        -6.8309    4.0996   53.3322 H       1  ZINC000894043060    0.1000
     38 H38        -9.9498    4.1017   51.7297 H       1  ZINC000894043060    0.4000
     39 H39       -10.2886    3.7024   48.8822 H       1  ZINC000894043060    0.0700
     40 H40        -9.8730    5.1514   47.9355 H       1  ZINC000894043060    0.0800
     41 H41        -8.5827    4.1532   48.6477 H       1  ZINC000894043060    0.0700
     42 H42       -11.3396    6.5356   49.4103 H       1  ZINC000894043060    0.1200
     43 H43        -5.7298    1.8069   49.9029 H       1  ZINC000894043060    0.1200
     44 H44        -3.3335    2.0844   49.4104 H       1  ZINC000894043060    0.1300
     45 H45        -2.6547    3.3432   53.4305 H       1  ZINC000894043060    0.1300
     46 H46        -5.0525    3.0711   53.9195 H       1  ZINC000894043060    0.1300
     47 H47       -11.0003    0.5849   51.4561 H       1  ZINC000894043060    0.1100
@<TRIPOS>BOND
     1     1     2    1
     2     1    29    1
     3     1    30    1
     4     1    31    1
     5     2     3    1
     6     2     4    1
     7     2    26    1
     8     4     5   am
     9     4    32    1
    10     5     6    2
    11     5     7    1
    12     7     8    1
    13     7    33    1
    14     7    34    1
    15     8     9    1
    16     8    19    1
    17     8    35    1
    18     9    10    1
    19     9    36    1
    20     9    37    1
    21    10    11    2
    22    10    12   am
    23    12    13    1
    24    12    38    1
    25    13    14    1
    26    13    15    1
    27    13    16    1
    28    15    39    1
    29    15    40    1
    30    15    41    1
    31    16    17    1
    32    16    18    1
    33    16    42    1
    34    19    25   ar
    35    19    20   ar
    36    20    21   ar
    37    20    43    1
    38    21    22   ar
    39    21    44    1
    40    22    23    1
    41    22    24   ar
    42    24    25   ar
    43    24    45    1
    44    25    46    1
    45    26    27    1
    46    26    28    1
    47    26    47    1
@<TRIPOS>SUBSTRUCTURE
     1 ZINC000894043060        1 TEMP              0 ****  ****    0 ROOT


##########                                Name:    ZINC000186105981
##########                DOCK_Rotatable_Bonds:                   6
##########                         Heavy_Atoms:                  26
##########                    Molecular_Weight:             396.873
##########                DOCK_Rotatable_Bonds:                   6
##########                       Formal_Charge:          -0.0400003
##########                     HBond_Acceptors:                   9
##########                        HBond_Donors:                   1
##########                         Heavy_Atoms:                  26
##########                          Grid_Score:          -28.149284
##########                     Grid_vdw_energy:          -28.005020
##########                      Grid_es_energy:           -0.144265
##########           Internal_energy_repulsive:           22.330570

@<TRIPOS>MOLECULE
ZINC000186105981
 44 46 1 0 0
SMALL
USER_CHARGES


@<TRIPOS>ATOM
      1 C1        -13.4727   -1.2666   59.5936 C.3     1  ZINC000186105981   -0.1400
      2 C2        -12.2077   -1.1563   58.7399 C.3     1  ZINC000186105981   -0.1100
      3 C3        -11.1040   -2.0231   59.3493 C.3     1  ZINC000186105981   -0.1600
      4 C4        -12.5079   -1.6374   57.3190 C.3     1  ZINC000186105981    0.1600
      5 H5        -12.5069   -2.7271   57.2965 H       1  ZINC000186105981    0.1200
      6 C6        -11.4530   -1.1146   56.3783 C.2     1  ZINC000186105981    0.4900
      7 O7        -10.4416   -0.6118   56.8202 O.2     1  ZINC000186105981   -0.4300
      8 N8        -11.6333   -1.2057   55.0457 N.am    1  ZINC000186105981   -0.6300
      9 C9        -10.6605   -0.7237   54.1782 C.2     1  ZINC000186105981    0.2400
     10 N10       -10.2754   -1.2865   53.0684 N.2     1  ZINC000186105981   -0.2600
     11 N11        -9.3761   -0.7090   52.3991 N.2     1  ZINC000186105981   -0.2000
     12 C12        -8.8972    0.4097   52.8667 C.2     1  ZINC000186105981    0.0300
     13 C13        -7.8463    1.2372   52.2380 C.ar    1  ZINC000186105981   -0.0500
     14 C14        -8.1132    2.5630   51.8862 C.ar    1  ZINC000186105981    0.1300
     15 F15        -9.3338    3.0931   52.1196 F       1  ZINC000186105981   -0.1200
     16 C16        -7.1249    3.3305   51.2990 C.ar    1  ZINC000186105981   -0.1400
     17 C17        -5.8750    2.7891   51.0601 C.ar    1  ZINC000186105981   -0.0600
     18 C18        -5.6043    1.4769   51.4056 C.ar    1  ZINC000186105981   -0.1200
     19 C19        -6.5796    0.6997   51.9981 C.ar    1  ZINC000186105981    0.0200
     20 Cl20       -6.2368   -0.9461   52.4310 Cl      1  ZINC000186105981   -0.0100
     21 S21        -9.7327    0.7638   54.3802 S.3     1  ZINC000186105981    0.1200
     22 N22       -13.8221   -1.1416   56.9029 N.am    1  ZINC000186105981   -0.6100
     23 C23       -15.0054   -1.9892   56.7147 C.3     1  ZINC000186105981    0.1000
     24 C24       -16.2096   -1.0216   56.7143 C.3     1  ZINC000186105981   -0.1300
     25 C25       -15.5525    0.2995   56.2522 C.3     1  ZINC000186105981   -0.1600
     26 C26       -14.1008    0.1489   56.6501 C.2     1  ZINC000186105981    0.5200
     27 O27       -13.3025    1.0590   56.7232 O.2     1  ZINC000186105981   -0.5000
     28 H28       -13.2587   -0.9239   60.6059 H       1  ZINC000186105981    0.0600
     29 H29       -14.2590   -0.6492   59.1595 H       1  ZINC000186105981    0.0600
     30 H30       -13.8013   -2.3054   59.6235 H       1  ZINC000186105981    0.0600
     31 H31       -11.8791   -0.1174   58.7100 H       1  ZINC000186105981    0.0900
     32 H32       -11.3937   -3.0724   59.2939 H       1  ZINC000186105981    0.0600
     33 H33       -10.1767   -1.8724   58.7965 H       1  ZINC000186105981    0.0600
     34 H34       -10.9551   -1.7419   60.3919 H       1  ZINC000186105981    0.0700
     35 H35       -12.4422   -1.6079   54.6922 H       1  ZINC000186105981    0.4200
     36 H36        -7.3294    4.3552   51.0261 H       1  ZINC000186105981    0.1500
     37 H37        -5.1065    3.3934   50.6011 H       1  ZINC000186105981    0.1500
     38 H38        -4.6259    1.0609   51.2155 H       1  ZINC000186105981    0.1500
     39 H39       -14.9444   -2.5159   55.7623 H       1  ZINC000186105981    0.0700
     40 H40       -15.0937   -2.7012   57.5353 H       1  ZINC000186105981    0.0800
     41 H41       -16.9713   -1.3471   56.0059 H       1  ZINC000186105981    0.0900
     42 H42       -16.6284   -0.9198   57.7156 H       1  ZINC000186105981    0.0800
     43 H43       -15.6461    0.4149   55.1724 H       1  ZINC000186105981    0.1100
     44 H44       -16.0003    1.1491   56.7679 H       1  ZINC000186105981    0.1000
@<TRIPOS>BOND
     1     1     2    1
     2     1    28    1
     3     1    29    1
     4     1    30    1
     5     2     3    1
     6     2     4    1
     7     2    31    1
     8     3    32    1
     9     3    33    1
    10     3    34    1
    11     4     5    1
    12     4     6    1
    13     4    22    1
    14     6     7    2
    15     6     8   am
    16     8     9    1
    17     8    35    1
    18     9    21    1
    19     9    10    2
    20    10    11    1
    21    11    12    2
    22    12    13    1
    23    12    21    1
    24    13    19   ar
    25    13    14   ar
    26    14    15    1
    27    14    16   ar
    28    16    17   ar
    29    16    36    1
    30    17    18   ar
    31    17    37    1
    32    18    19   ar
    33    18    38    1
    34    19    20    1
    35    22    26   am
    36    22    23    1
    37    23    24    1
    38    23    39    1
    39    23    40    1
    40    24    25    1
    41    24    41    1
    42    24    42    1
    43    25    26    1
    44    25    43    1
    45    25    44    1
    46    26    27    2
@<TRIPOS>SUBSTRUCTURE
     1 ZINC000186105981        1 TEMP              0 ****  ****    0 ROOT


##########                                Name:    ZINC000347662449
##########                DOCK_Rotatable_Bonds:                   5
##########                         Heavy_Atoms:                  23
##########                    Molecular_Weight:              327.45
##########                DOCK_Rotatable_Bonds:                   5
##########                       Formal_Charge:                0.03
##########                     HBond_Acceptors:                   5
##########                        HBond_Donors:                   0
##########                         Heavy_Atoms:                  23
##########                          Grid_Score:          -28.140266
##########                     Grid_vdw_energy:          -26.882881
##########                      Grid_es_energy:           -1.257384
##########           Internal_energy_repulsive:            8.917980

@<TRIPOS>MOLECULE
ZINC000347662449
 44 46 1 0 0
SMALL
USER_CHARGES


@<TRIPOS>ATOM
      1 C1         -0.5335    1.8007   58.0275 C.2     1  ZINC000347662449   -0.1800
      2 C2         -0.8539    2.8576   58.7321 C.2     1  ZINC000347662449   -0.1700
      3 C3         -1.1785    4.1555   58.0386 C.3     1  ZINC000347662449    0.1600
      4 N4         -1.7402    3.8747   56.7150 N.am    1  ZINC000347662449   -0.6200
      5 C5         -3.1670    3.6546   56.4506 C.3     1  ZINC000347662449    0.1100
      6 C6         -3.3362    3.8353   54.9257 C.3     1  ZINC000347662449   -0.1100
      7 C7         -1.9190    3.4956   54.4089 C.3     1  ZINC000347662449   -0.1200
      8 H8         -1.8566    2.4437   54.1300 H       1  ZINC000347662449    0.1400
      9 S9         -1.4886    4.5492   53.0014 S.3     1  ZINC000347662449    0.0300
     10 C10        -1.1994    3.3178   51.7746 C.2     1  ZINC000347662449    0.1900
     11 N11        -0.0255    2.8560   51.4114 N.2     1  ZINC000347662449   -0.4500
     12 C12        -0.1889    1.9281   50.4533 C.2     1  ZINC000347662449   -0.0100
     13 C13        -1.5037    1.8011   50.2054 C.2     1  ZINC000347662449   -0.0400
     14 N14        -2.1574    2.6778   51.0447 N.pl3   1  ZINC000347662449   -0.4000
     15 C15        -3.5424    2.8791   51.1266 C.ar    1  ZINC000347662449    0.1100
     16 C16        -4.0814    4.1274   50.8473 C.ar    1  ZINC000347662449   -0.1100
     17 C17        -5.4466    4.3227   50.9289 C.ar    1  ZINC000347662449   -0.1000
     18 C18        -6.2757    3.2764   51.2883 C.ar    1  ZINC000347662449   -0.0800
     19 C19        -7.7646    3.4926   51.3758 C.3     1  ZINC000347662449   -0.1200
     20 C20        -5.7416    2.0316   51.5672 C.ar    1  ZINC000347662449   -0.0700
     21 C21        -6.6489    0.8937   51.9585 C.3     1  ZINC000347662449   -0.1200
     22 C22        -4.3783    1.8287   51.4818 C.ar    1  ZINC000347662449   -0.1100
     23 C23        -1.0157    3.7913   55.5859 C.2     1  ZINC000347662449    0.5300
     24 O24         0.1878    3.9261   55.5212 O.2     1  ZINC000347662449   -0.4900
     25 H25        -0.5021    1.8596   56.9495 H       1  ZINC000347662449    0.1000
     26 H26        -0.2966    0.8717   58.5247 H       1  ZINC000347662449    0.1000
     27 H27        -0.8853    2.7986   59.8101 H       1  ZINC000347662449    0.1100
     28 H28        -1.9048    4.7122   58.6309 H       1  ZINC000347662449    0.0900
     29 H29        -0.2692    4.7465   57.9296 H       1  ZINC000347662449    0.0900
     30 H30        -3.4537    2.6450   56.7449 H       1  ZINC000347662449    0.0800
     31 H31        -3.7676    4.3895   56.9865 H       1  ZINC000347662449    0.0900
     32 H32        -4.0735    3.1371   54.5296 H       1  ZINC000347662449    0.1100
     33 H33        -3.6042    4.8634   54.6821 H       1  ZINC000347662449    0.0900
     34 H34         0.6019    1.3777   49.9654 H       1  ZINC000347662449    0.1800
     35 H35        -1.9612    1.1363   49.4877 H       1  ZINC000347662449    0.1800
     36 H36        -3.4343    4.9452   50.5668 H       1  ZINC000347662449    0.1300
     37 H37        -5.8665    5.2938   50.7120 H       1  ZINC000347662449    0.1300
     38 H38        -8.2199    3.2815   50.4083 H       1  ZINC000347662449    0.0800
     39 H39        -8.1849    2.8256   52.1285 H       1  ZINC000347662449    0.0700
     40 H40        -7.9657    4.5272   51.6541 H       1  ZINC000347662449    0.0700
     41 H41        -6.9643    0.3563   51.0643 H       1  ZINC000347662449    0.0800
     42 H42        -6.1136    0.2136   52.6212 H       1  ZINC000347662449    0.0700
     43 H43        -7.5249    1.2880   52.4735 H       1  ZINC000347662449    0.0800
     44 H44        -3.9617    0.8564   51.6994 H       1  ZINC000347662449    0.1300
@<TRIPOS>BOND
     1     1     2    2
     2     1    25    1
     3     1    26    1
     4     2     3    1
     5     2    27    1
     6     3     4    1
     7     3    28    1
     8     3    29    1
     9     4    23   am
    10     4     5    1
    11     5     6    1
    12     5    30    1
    13     5    31    1
    14     6     7    1
    15     6    32    1
    16     6    33    1
    17     7     8    1
    18     7     9    1
    19     7    23    1
    20     9    10    1
    21    10    14    1
    22    10    11    2
    23    11    12    1
    24    12    13    2
    25    12    34    1
    26    13    14    1
    27    13    35    1
    28    14    15    1
    29    15    22   ar
    30    15    16   ar
    31    16    17   ar
    32    16    36    1
    33    17    18   ar
    34    17    37    1
    35    18    19    1
    36    18    20   ar
    37    19    38    1
    38    19    39    1
    39    19    40    1
    40    20    21    1
    41    20    22   ar
    42    21    41    1
    43    21    42    1
    44    21    43    1
    45    22    44    1
    46    23    24    2
@<TRIPOS>SUBSTRUCTURE
     1 ZINC000347662449        1 TEMP              0 ****  ****    0 ROOT


##########                                Name:    ZINC001079355651
##########                DOCK_Rotatable_Bonds:                   5
##########                         Heavy_Atoms:                  25
##########                    Molecular_Weight:             353.851
##########                DOCK_Rotatable_Bonds:                   5
##########                       Formal_Charge:           0.0199997
##########                     HBond_Acceptors:                   5
##########                        HBond_Donors:                   1
##########                         Heavy_Atoms:                  25
##########                          Grid_Score:          -28.106462
##########                     Grid_vdw_energy:          -28.382908
##########                      Grid_es_energy:            0.276445
##########           Internal_energy_repulsive:            4.597786

@<TRIPOS>MOLECULE
ZINC001079355651
 45 47 1 0 0
SMALL
USER_CHARGES


@<TRIPOS>ATOM
      1 C1        -10.1662    2.9326   52.6828 C.3     1  ZINC001079355651   -0.1500
      2 C2         -9.2397    1.9947   53.4593 C.3     1  ZINC001079355651   -0.1000
      3 H3         -9.0106    2.4152   54.4384 H       1  ZINC001079355651    0.0900
      4 C4         -7.9395    1.7466   52.6648 C.3     1  ZINC001079355651    0.0300
      5 N5         -7.6107    0.3207   52.9208 N.3     1  ZINC001079355651   -0.5100
      6 C6         -6.7179   -0.2086   51.8813 C.3     1  ZINC001079355651    0.1600
      7 C7         -5.4894    0.6009   51.8309 C.1     1  ZINC001079355651   -0.1400
      8 C8         -4.5098    1.2465   51.7907 C.1     1  ZINC001079355651   -0.1300
      9 C9         -3.3148    2.0340   51.7418 C.ar    1  ZINC001079355651    0.0300
     10 C10        -2.4070    1.8651   50.6957 C.ar    1  ZINC001079355651   -0.0900
     11 C11        -1.2570    2.6267   50.6536 C.ar    1  ZINC001079355651   -0.1000
     12 C12        -1.0027    3.5564   51.6455 C.ar    1  ZINC001079355651   -0.1000
     13 C13        -1.8990    3.7290   52.6869 C.ar    1  ZINC001079355651   -0.0300
     14 Cl14       -1.5709    4.8980   53.9277 Cl      1  ZINC001079355651   -0.0600
     15 C15        -3.0561    2.9774   52.7369 C.ar    1  ZINC001079355651   -0.0900
     16 C16        -8.9267   -0.3679   52.8935 C.3     1  ZINC001079355651    0.0200
     17 C17        -9.8903    0.6045   53.6121 C.3     1  ZINC001079355651    0.1500
     18 H18       -10.8694    0.5901   53.1332 H       1  ZINC001079355651    0.1000
     19 N19       -10.0120    0.2469   55.0276 N.am    1  ZINC001079355651   -0.7100
     20 C20       -11.0188   -0.5500   55.4372 C.2     1  ZINC001079355651    0.5600
     21 O21       -11.8248   -0.9730   54.6322 O.2     1  ZINC001079355651   -0.5300
     22 C22       -11.1428   -0.9101   56.8689 C.ar    1  ZINC001079355651   -0.0900
     23 C23       -12.1869   -1.7249   57.3171 C.ar    1  ZINC001079355651   -0.1400
     24 C24       -12.2644   -2.0357   58.6609 C.ar    1  ZINC001079355651    0.1000
     25 N25       -11.3719   -1.5754   59.5147 N.ar    1  ZINC001079355651   -0.4700
     26 C26       -10.3724   -0.8047   59.1342 C.ar    1  ZINC001079355651    0.1000
     27 C27       -10.2157   -0.4492   57.8086 C.ar    1  ZINC001079355651   -0.1200
     28 H28       -11.0993    3.0583   53.2319 H       1  ZINC001079355651    0.0600
     29 H29        -9.6829    3.9019   52.5610 H       1  ZINC001079355651    0.0700
     30 H30       -10.3764    2.5057   51.7021 H       1  ZINC001079355651    0.0600
     31 H31        -8.1067    1.9131   51.6006 H       1  ZINC001079355651    0.0600
     32 H32        -7.1413    2.3925   53.0307 H       1  ZINC001079355651    0.0900
     33 H33        -6.4624   -1.2425   52.1137 H       1  ZINC001079355651    0.0700
     34 H34        -7.2204   -0.1669   50.9149 H       1  ZINC001079355651    0.1100
     35 H35        -2.6038    1.1393   49.9206 H       1  ZINC001079355651    0.1300
     36 H36        -0.5537    2.4963   49.8445 H       1  ZINC001079355651    0.1400
     37 H37        -0.1011    4.1499   51.6079 H       1  ZINC001079355651    0.1400
     38 H38        -3.7548    3.1126   53.5493 H       1  ZINC001079355651    0.1400
     39 H39        -9.2484   -0.5325   51.8651 H       1  ZINC001079355651    0.0600
     40 H40        -8.8718   -1.3143   53.4316 H       1  ZINC001079355651    0.0900
     41 H41        -9.3679    0.5836   55.6700 H       1  ZINC001079355651    0.4000
     42 H42       -12.9219   -2.1053   56.6232 H       1  ZINC001079355651    0.1400
     43 H43       -13.0674   -2.6641   59.0168 H       1  ZINC001079355651    0.1600
     44 H44        -9.6642   -0.4498   59.8683 H       1  ZINC001079355651    0.1700
     45 H45        -9.3944    0.1827   57.5040 H       1  ZINC001079355651    0.1500
@<TRIPOS>BOND
     1     1     2    1
     2     1    28    1
     3     1    29    1
     4     1    30    1
     5     2     3    1
     6     2    17    1
     7     2     4    1
     8     4     5    1
     9     4    31    1
    10     4    32    1
    11     5     6    1
    12     5    16    1
    13     6     7    1
    14     6    33    1
    15     6    34    1
    16     7     8    3
    17     8     9    1
    18     9    15   ar
    19     9    10   ar
    20    10    11   ar
    21    10    35    1
    22    11    12   ar
    23    11    36    1
    24    12    13   ar
    25    12    37    1
    26    13    14    1
    27    13    15   ar
    28    15    38    1
    29    16    17    1
    30    16    39    1
    31    16    40    1
    32    17    18    1
    33    17    19    1
    34    19    20   am
    35    19    41    1
    36    20    21    2
    37    20    22    1
    38    22    27   ar
    39    22    23   ar
    40    23    24   ar
    41    23    42    1
    42    24    25   ar
    43    24    43    1
    44    25    26   ar
    45    26    27   ar
    46    26    44    1
    47    27    45    1
@<TRIPOS>SUBSTRUCTURE
     1 ZINC001079355651        1 TEMP              0 ****  ****    0 ROOT


##########                                Name:    ZINC000632456679
##########                DOCK_Rotatable_Bonds:                   6
##########                         Heavy_Atoms:                  24
##########                    Molecular_Weight:              374.82
##########                DOCK_Rotatable_Bonds:                   6
##########                       Formal_Charge:          -0.0299999
##########                     HBond_Acceptors:                   9
##########                        HBond_Donors:                   1
##########                         Heavy_Atoms:                  24
##########                          Grid_Score:          -28.094429
##########                     Grid_vdw_energy:          -27.485767
##########                      Grid_es_energy:           -0.608661
##########           Internal_energy_repulsive:           32.829445

@<TRIPOS>MOLECULE
ZINC000632456679
 40 41 1 0 0
SMALL
USER_CHARGES


@<TRIPOS>ATOM
      1 C1        -13.0099    0.2427   59.3831 C.3     1  ZINC000632456679   -0.1600
      2 C2        -12.5909   -0.9805   58.5652 C.3     1  ZINC000632456679    0.1900
      3 C3        -11.6771   -1.8705   59.4101 C.3     1  ZINC000632456679   -0.2000
      4 C4        -13.8354   -1.7705   58.1554 C.3     1  ZINC000632456679   -0.6300
      5 S5        -15.0535   -1.7192   59.4986 S.o2    1  ZINC000632456679    2.4100
      6 C6        -16.2582   -2.9638   58.9596 C.3     1  ZINC000632456679   -0.6600
      7 O7        -14.4318   -2.1777   60.6913 O.2     1  ZINC000632456679   -0.9300
      8 O8        -15.6837   -0.4457   59.4899 O.2     1  ZINC000632456679   -0.9300
      9 N9        -11.8730   -0.5431   57.3654 N.am    1  ZINC000632456679   -0.7200
     10 C10       -11.4891   -1.4472   56.4426 C.2     1  ZINC000632456679    0.6200
     11 O11       -11.7371   -2.6261   56.6067 O.2     1  ZINC000632456679   -0.5000
     12 C12       -10.7678   -1.0065   55.2335 C.2     1  ZINC000632456679   -0.0900
     13 C13       -10.0179    0.1269   55.0948 C.2     1  ZINC000632456679   -0.1300
     14 C14        -9.5558    0.0655   53.7513 C.2     1  ZINC000632456679    0.0400
     15 C15        -8.6895    1.0540   53.0621 C.ar    1  ZINC000632456679   -0.0500
     16 C16        -9.1579    2.3427   52.8161 C.ar    1  ZINC000632456679   -0.0600
     17 C17        -8.3486    3.2587   52.1748 C.ar    1  ZINC000632456679   -0.1100
     18 C18        -7.0738    2.9007   51.7752 C.ar    1  ZINC000632456679   -0.0700
     19 C19        -6.6008    1.6227   52.0156 C.ar    1  ZINC000632456679   -0.0800
     20 Cl20       -4.9995    1.1815   51.5106 Cl      1  ZINC000632456679   -0.0400
     21 C21        -7.4007    0.6978   52.6632 C.ar    1  ZINC000632456679    0.1400
     22 F22        -6.9394   -0.5500   52.8986 F       1  ZINC000632456679   -0.1100
     23 N23       -10.0464   -1.0373   53.2437 N.2     1  ZINC000632456679   -0.3200
     24 O24       -10.7128   -1.6445   54.0490 O.3     1  ZINC000632456679    0.1400
     25 H25       -12.1232    0.8056   59.6752 H       1  ZINC000632456679    0.0900
     26 H26       -13.6608    0.8767   58.7812 H       1  ZINC000632456679    0.0600
     27 H27       -13.5440   -0.0827   60.2759 H       1  ZINC000632456679    0.0700
     28 H28       -12.2112   -2.1959   60.3028 H       1  ZINC000632456679    0.0800
     29 H29       -11.3787   -2.7420   58.8274 H       1  ZINC000632456679    0.0800
     30 H30       -10.7905   -1.3076   59.7021 H       1  ZINC000632456679    0.0900
     31 H31       -14.2665   -1.3291   57.2569 H       1  ZINC000632456679    0.1600
     32 H32       -13.5591   -2.8057   57.9549 H       1  ZINC000632456679    0.1400
     33 H33       -15.7644   -3.9312   58.8668 H       1  ZINC000632456679    0.1300
     34 H34       -17.0607   -3.0345   59.6939 H       1  ZINC000632456679    0.1300
     35 H35       -16.6733   -2.6737   57.9945 H       1  ZINC000632456679    0.1300
     36 H36       -11.6741    0.3973   57.2351 H       1  ZINC000632456679    0.4200
     37 H37        -9.8222    0.8910   55.8327 H       1  ZINC000632456679    0.1900
     38 H38       -10.1531    2.6247   53.1266 H       1  ZINC000632456679    0.1500
     39 H39        -8.7121    4.2577   51.9844 H       1  ZINC000632456679    0.1500
     40 H40        -6.4453    3.6213   51.2731 H       1  ZINC000632456679    0.1500
@<TRIPOS>BOND
     1     1     2    1
     2     1    25    1
     3     1    26    1
     4     1    27    1
     5     2     3    1
     6     2     4    1
     7     2     9    1
     8     3    28    1
     9     3    29    1
    10     3    30    1
    11     4     5    1
    12     4    31    1
    13     4    32    1
    14     5     6    1
    15     5     7    2
    16     5     8    2
    17     6    33    1
    18     6    34    1
    19     6    35    1
    20     9    10   am
    21     9    36    1
    22    10    11    2
    23    10    12    1
    24    12    24    1
    25    12    13    2
    26    13    14    1
    27    13    37    1
    28    14    15    1
    29    14    23    2
    30    15    21   ar
    31    15    16   ar
    32    16    17   ar
    33    16    38    1
    34    17    18   ar
    35    17    39    1
    36    18    19   ar
    37    18    40    1
    38    19    20    1
    39    19    21   ar
    40    21    22    1
    41    23    24    1
@<TRIPOS>SUBSTRUCTURE
     1 ZINC000632456679        1 TEMP              0 ****  ****    0 ROOT


##########                                Name:    ZINC000673213454
##########                DOCK_Rotatable_Bonds:                   7
##########                         Heavy_Atoms:                  26
##########                    Molecular_Weight:             360.453
##########                DOCK_Rotatable_Bonds:                   7
##########                       Formal_Charge:          -0.0100001
##########                     HBond_Acceptors:                   6
##########                        HBond_Donors:                   1
##########                         Heavy_Atoms:                  26
##########                          Grid_Score:          -28.083887
##########                     Grid_vdw_energy:          -28.484884
##########                      Grid_es_energy:            0.400997
##########           Internal_energy_repulsive:           21.430573

@<TRIPOS>MOLECULE
ZINC000673213454
 54 56 1 0 0
SMALL
USER_CHARGES


@<TRIPOS>ATOM
      1 C1        -10.4207   -0.5674   54.4827 C.3     1  ZINC000673213454   -0.1700
      2 C2        -10.3655    0.5114   53.3992 C.3     1  ZINC000673213454    0.1400
      3 H3        -10.5142    1.4909   53.8538 H       1  ZINC000673213454    0.0900
      4 C4        -11.4664    0.2554   52.3681 C.3     1  ZINC000673213454   -0.1200
      5 C5        -12.8350    0.4353   53.0279 C.3     1  ZINC000673213454   -0.1300
      6 H6        -12.9653   -0.2840   53.8363 H       1  ZINC000673213454    0.0800
      7 C7        -13.9654    0.2844   51.9809 C.3     1  ZINC000673213454   -0.1500
      8 C8        -14.9498    1.4050   52.4022 C.3     1  ZINC000673213454    0.0500
      9 O9        -14.0795    2.4769   52.8243 O.3     1  ZINC000673213454   -0.3800
     10 C10       -12.9944    1.8744   53.5555 C.3     1  ZINC000673213454    0.0500
     11 N11        -9.0587    0.4732   52.7382 N.am    1  ZINC000673213454   -0.6900
     12 C12        -8.0003    1.0890   53.3014 C.2     1  ZINC000673213454    0.5100
     13 O13        -8.1295    1.6737   54.3568 O.2     1  ZINC000673213454   -0.5100
     14 C14        -6.6676    1.0515   52.6261 C.2     1  ZINC000673213454    0.5000
     15 O15        -5.8871    0.1558   52.8733 O.2     1  ZINC000673213454   -0.5200
     16 N16        -6.3326    2.0125   51.7425 N.am    1  ZINC000673213454   -0.5800
     17 C17        -7.3022    3.0883   51.4624 C.3     1  ZINC000673213454    0.1100
     18 C18        -6.6019    4.4521   51.3740 C.3     1  ZINC000673213454   -0.1700
     19 C19        -5.5325    4.5440   52.4439 C.3     1  ZINC000673213454    0.0800
     20 O20        -4.3018    4.0843   51.9007 O.3     1  ZINC000673213454   -0.3800
     21 C21        -4.0009    2.7381   51.9466 C.3     1  ZINC000673213454    0.1500
     22 H22        -4.0371    2.3928   52.9798 H       1  ZINC000673213454    0.0600
     23 C23        -2.6187    2.5133   51.3899 C.ar    1  ZINC000673213454   -0.0800
     24 C24        -2.4501    2.2508   50.0433 C.ar    1  ZINC000673213454   -0.0900
     25 C25        -1.1821    2.0446   49.5327 C.ar    1  ZINC000673213454   -0.1300
     26 C26        -0.0828    2.1012   50.3687 C.ar    1  ZINC000673213454   -0.1200
     27 C27        -0.2512    2.3645   51.7153 C.ar    1  ZINC000673213454   -0.1300
     28 C28        -1.5188    2.5750   52.2251 C.ar    1  ZINC000673213454   -0.0900
     29 C29        -5.0294    1.9529   51.1069 C.3     1  ZINC000673213454    0.0700
     30 H30       -10.2720   -1.5469   54.0281 H       1  ZINC000673213454    0.0600
     31 H31        -9.6364   -0.3850   55.2174 H       1  ZINC000673213454    0.0600
     32 H32       -11.3930   -0.5391   54.9746 H       1  ZINC000673213454    0.0700
     33 H33       -11.3643    0.9622   51.5446 H       1  ZINC000673213454    0.0800
     34 H34       -11.3778   -0.7619   51.9868 H       1  ZINC000673213454    0.0900
     35 H35       -13.5876    0.4570   50.9731 H       1  ZINC000673213454    0.0800
     36 H36       -14.4365   -0.6956   52.0556 H       1  ZINC000673213454    0.0800
     37 H37       -15.5607    1.7176   51.5553 H       1  ZINC000673213454    0.0900
     38 H38       -15.5785    1.0730   53.2284 H       1  ZINC000673213454    0.0600
     39 H39       -13.2286    1.8582   54.6199 H       1  ZINC000673213454    0.0600
     40 H40       -12.0757    2.4355   53.3847 H       1  ZINC000673213454    0.0900
     41 H41        -8.9551    0.0048   51.8951 H       1  ZINC000673213454    0.4100
     42 H42        -7.8031    2.8812   50.5167 H       1  ZINC000673213454    0.0800
     43 H43        -8.0442    3.1179   52.2603 H       1  ZINC000673213454    0.0900
     44 H44        -6.1428    4.5615   50.3915 H       1  ZINC000673213454    0.0800
     45 H45        -7.3335    5.2462   51.5230 H       1  ZINC000673213454    0.0900
     46 H46        -5.4257    5.5800   52.7657 H       1  ZINC000673213454    0.1000
     47 H47        -5.8118    3.9218   53.2942 H       1  ZINC000673213454    0.0500
     48 H48        -3.3090    2.2067   49.3901 H       1  ZINC000673213454    0.1300
     49 H49        -1.0505    1.8389   48.4806 H       1  ZINC000673213454    0.1200
     50 H50         0.9078    1.9393   49.9700 H       1  ZINC000673213454    0.1200
     51 H51         0.6077    2.4084   52.3686 H       1  ZINC000673213454    0.1200
     52 H52        -1.6504    2.7808   53.2771 H       1  ZINC000673213454    0.1300
     53 H53        -4.7142    0.9125   51.0268 H       1  ZINC000673213454    0.1200
     54 H54        -5.0944    2.3903   50.1106 H       1  ZINC000673213454    0.0800
@<TRIPOS>BOND
     1     1     2    1
     2     1    30    1
     3     1    31    1
     4     1    32    1
     5     2     3    1
     6     2     4    1
     7     2    11    1
     8     4     5    1
     9     4    33    1
    10     4    34    1
    11     5     6    1
    12     5    10    1
    13     5     7    1
    14     7     8    1
    15     7    35    1
    16     7    36    1
    17     8     9    1
    18     8    37    1
    19     8    38    1
    20     9    10    1
    21    10    39    1
    22    10    40    1
    23    11    12   am
    24    11    41    1
    25    12    13    2
    26    12    14    1
    27    14    15    2
    28    14    16   am
    29    16    29    1
    30    16    17    1
    31    17    18    1
    32    17    42    1
    33    17    43    1
    34    18    19    1
    35    18    44    1
    36    18    45    1
    37    19    20    1
    38    19    46    1
    39    19    47    1
    40    20    21    1
    41    21    22    1
    42    21    23    1
    43    21    29    1
    44    23    28   ar
    45    23    24   ar
    46    24    25   ar
    47    24    48    1
    48    25    26   ar
    49    25    49    1
    50    26    27   ar
    51    26    50    1
    52    27    28   ar
    53    27    51    1
    54    28    52    1
    55    29    53    1
    56    29    54    1
@<TRIPOS>SUBSTRUCTURE
     1 ZINC000673213454        1 TEMP              0 ****  ****    0 ROOT


##########                                Name:    ZINC000350493047
##########                DOCK_Rotatable_Bonds:                   7
##########                         Heavy_Atoms:                  24
##########                    Molecular_Weight:             330.387
##########                DOCK_Rotatable_Bonds:                   7
##########                       Formal_Charge:          -0.0300002
##########                     HBond_Acceptors:                   7
##########                        HBond_Donors:                   3
##########                         Heavy_Atoms:                  24
##########                          Grid_Score:          -28.060352
##########                     Grid_vdw_energy:          -29.111162
##########                      Grid_es_energy:            1.050810
##########           Internal_energy_repulsive:            7.202563

@<TRIPOS>MOLECULE
ZINC000350493047
 46 48 1 0 0
SMALL
USER_CHARGES


@<TRIPOS>ATOM
      1 C1         -4.0848    4.0602   51.6471 C.3     1  <0>        -0.1600
      2 C2         -3.6398    2.5980   51.5776 C.3     1  <0>         0.2600
      3 H3         -2.8859    2.4110   52.3423 H       1  <0>         0.1200
      4 N4         -3.0727    2.3225   50.2552 N.am    1  <0>        -0.7400
      5 C5         -1.8087    1.8683   50.1453 C.2     1  <0>         0.7100
      6 N6         -1.2875    1.6133   48.9288 N.am    1  <0>        -0.8600
      7 O7         -1.1382    1.6885   51.1436 O.2     1  <0>        -0.5900
      8 C8         -4.8270    1.6998   51.8121 C.2     1  <0>         0.1700
      9 N9         -4.8650    0.4135   51.6259 N.2     1  <0>        -0.3800
     10 O10        -5.9617   -0.0237   51.9038 O.3     1  <0>         0.0900
     11 C11        -6.7584    0.9776   52.3089 C.2     1  <0>         0.2400
     12 C12        -8.1677    0.8661   52.7354 C.ar    1  <0>        -0.0800
     13 C13        -8.8409   -0.3521   52.6169 C.ar    1  <0>        -0.0200
     14 C14       -10.1557   -0.4520   53.0159 C.ar    1  <0>        -0.2200
     15 C15       -10.8122    0.6570   53.5353 C.ar    1  <0>         0.1700
     16 O16       -12.1082    0.5545   53.9271 O.3     1  <0>        -0.3000
     17 C17       -13.0682    0.2381   52.9170 C.3     1  <0>         0.0800
     18 C18       -14.4364    0.0172   53.5652 C.3     1  <0>        -0.1500
     19 C19       -15.4643   -0.3215   52.4838 C.3     1  <0>        -0.1200
     20 C20       -15.5537    0.8341   51.4852 C.3     1  <0>        -0.1300
     21 C21       -14.1855    1.0551   50.8369 C.3     1  <0>        -0.1200
     22 C22       -13.1575    1.3938   51.9184 C.3     1  <0>        -0.1200
     23 C23       -10.1460    1.8703   53.6552 C.ar    1  <0>        -0.1600
     24 C24        -8.8294    1.9771   53.2639 C.ar    1  <0>        -0.0300
     25 N25        -6.0341    2.0823   52.2564 N.2     1  <0>        -0.4700
     26 H26        -4.8387    4.2472   50.8824 H       1  <0>         0.0600
     27 H27        -4.5068    4.2652   52.6310 H       1  <0>         0.0700
     28 H28        -3.2262    4.7098   51.4774 H       1  <0>         0.0800
     29 H29        -3.6071    2.4670   49.4586 H       1  <0>         0.4000
     30 H30        -0.3781    1.2852   48.8499 H       1  <0>         0.4000
     31 H31        -1.8218    1.7578   48.1322 H       1  <0>         0.4200
     32 H32        -8.3315   -1.2143   52.2126 H       1  <0>         0.1400
     33 H33       -10.6769   -1.3935   52.9246 H       1  <0>         0.1400
     34 H34       -12.7621   -0.6693   52.3962 H       1  <0>         0.0800
     35 H35       -14.3727   -0.8061   54.2767 H       1  <0>         0.0700
     36 H36       -14.7425    0.9246   54.0860 H       1  <0>         0.0800
     37 H37       -15.1582   -1.2289   51.9630 H       1  <0>         0.0600
     38 H38       -16.4391   -0.4789   52.9455 H       1  <0>         0.0700
     39 H39       -16.2861    0.5928   50.7147 H       1  <0>         0.0700
     40 H40       -15.8598    1.7415   52.0059 H       1  <0>         0.0700
     41 H41       -13.8794    0.1477   50.3163 H       1  <0>         0.0700
     42 H42       -14.2492    1.8784   50.1256 H       1  <0>         0.0700
     43 H43       -13.4636    2.3012   52.4391 H       1  <0>         0.0800
     44 H44       -12.1829    1.5512   51.4566 H       1  <0>         0.0700
     45 H45       -10.6597    2.7300   54.0598 H       1  <0>         0.1400
     46 H46        -8.3121    2.9205   53.3577 H       1  <0>         0.1400
@<TRIPOS>BOND
     1     1     2    1
     2     1    26    1
     3     1    27    1
     4     1    28    1
     5     2     3    1
     6     2     4    1
     7     2     8    1
     8     4     5   am
     9     4    29    1
    10     5     6   am
    11     5     7    2
    12     6    30    1
    13     6    31    1
    14     8    25    1
    15     8     9    2
    16     9    10    1
    17    10    11    1
    18    11    12    1
    19    11    25    2
    20    12    24   ar
    21    12    13   ar
    22    13    14   ar
    23    13    32    1
    24    14    15   ar
    25    14    33    1
    26    15    16    1
    27    15    23   ar
    28    16    17    1
    29    17    22    1
    30    17    18    1
    31    17    34    1
    32    18    19    1
    33    18    35    1
    34    18    36    1
    35    19    20    1
    36    19    37    1
    37    19    38    1
    38    20    21    1
    39    20    39    1
    40    20    40    1
    41    21    22    1
    42    21    41    1
    43    21    42    1
    44    22    43    1
    45    22    44    1
    46    23    24   ar
    47    23    45    1
    48    24    46    1
@<TRIPOS>SUBSTRUCTURE
     1 <0>         1 TEMP              0 ****  ****    0 ROOT


##########                                Name:    ZINC000647468483
##########                DOCK_Rotatable_Bonds:                   5
##########                         Heavy_Atoms:                  24
##########                    Molecular_Weight:             341.373
##########                DOCK_Rotatable_Bonds:                   5
##########                       Formal_Charge:           0.0300004
##########                     HBond_Acceptors:                   6
##########                        HBond_Donors:                   2
##########                         Heavy_Atoms:                  24
##########                          Grid_Score:          -28.035860
##########                     Grid_vdw_energy:          -26.199617
##########                      Grid_es_energy:           -1.836243
##########           Internal_energy_repulsive:           17.798914

@<TRIPOS>MOLECULE
ZINC000647468483
 46 48 1 0 0
SMALL
USER_CHARGES


@<TRIPOS>ATOM
      1 O1         -0.5649    3.7767   58.8043 O.co2   1  ZINC000647468483   -0.6800
      2 C2         -0.3955    4.2318   57.6860 C.2     1  ZINC000647468483    0.5000
      3 O3          0.7307    4.3178   57.2268 O.co2   1  ZINC000647468483   -0.6900
      4 C4         -1.5789    4.6822   56.8686 C.3     1  ZINC000647468483   -0.1500
      5 H5         -1.7591    5.7482   57.0075 H       1  ZINC000647468483    0.0800
      6 C6         -2.8408    3.8604   57.2307 C.3     1  ZINC000647468483   -0.1100
      7 C7         -3.7355    3.9698   55.9788 C.3     1  ZINC000647468483   -0.1400
      8 C8         -2.8009    4.2792   54.7962 C.3     1  ZINC000647468483    0.0100
      9 H9         -3.0692    5.2361   54.3486 H       1  ZINC000647468483    0.1400
     10 N10        -2.8903    3.2114   53.7913 N.4     1  ZINC000647468483   -0.5000
     11 H11        -2.2584    2.4642   54.0374 H       1  ZINC000647468483    0.4200
     12 H12        -3.8345    2.8569   53.7604 H       1  ZINC000647468483    0.4300
     13 C13        -2.5251    3.7476   52.4733 C.3     1  ZINC000647468483    0.0200
     14 H14        -2.6130    4.8340   52.4751 H       1  ZINC000647468483    0.1500
     15 C15        -1.0861    3.3356   52.1170 C.3     1  ZINC000647468483   -0.1400
     16 C16        -1.1748    2.4965   50.8256 C.3     1  ZINC000647468483   -0.1300
     17 C17        -2.6246    1.9513   50.8256 C.3     1  ZINC000647468483   -0.1300
     18 C18        -3.4391    3.1452   51.3863 C.3     1  ZINC000647468483   -0.0600
     19 H19        -3.6328    3.8767   50.6016 H       1  ZINC000647468483    0.1300
     20 C20        -4.7341    2.6640   51.9883 C.ar    1  ZINC000647468483   -0.1200
     21 C21        -5.4821    3.5098   52.7853 C.ar    1  ZINC000647468483   -0.0700
     22 C22        -6.6701    3.0682   53.3377 C.ar    1  ZINC000647468483   -0.1000
     23 C23        -7.1099    1.7810   53.0925 C.ar    1  ZINC000647468483   -0.0600
     24 C24        -6.3620    0.9352   52.2946 C.ar    1  ZINC000647468483   -0.1600
     25 C25        -6.8413   -0.4684   52.0277 C.3     1  ZINC000647468483    0.5000
     26 F26        -6.5379   -0.8219   50.7086 F       1  ZINC000647468483   -0.1700
     27 F27        -6.2059   -1.3531   52.9056 F       1  ZINC000647468483   -0.1700
     28 F28        -8.2254   -0.5331   52.2211 F       1  ZINC000647468483   -0.1700
     29 C29        -5.1765    1.3781   51.7389 C.ar    1  ZINC000647468483   -0.1100
     30 C30        -1.3686    4.3516   55.3702 C.3     1  ZINC000647468483   -0.1200
     31 H31        -2.5769    2.8202   57.4213 H       1  ZINC000647468483    0.0800
     32 H32        -3.3421    4.2927   58.0967 H       1  ZINC000647468483    0.0800
     33 H33        -4.2549    3.0269   55.8075 H       1  ZINC000647468483    0.0700
     34 H34        -4.4575    4.7765   56.1051 H       1  ZINC000647468483    0.1000
     35 H35        -0.4757    4.2221   51.9450 H       1  ZINC000647468483    0.1000
     36 H36        -0.6586    2.7378   52.9221 H       1  ZINC000647468483    0.0900
     37 H37        -1.0030    3.1234   49.9506 H       1  ZINC000647468483    0.0800
     38 H38        -0.4586    1.6753   50.8542 H       1  ZINC000647468483    0.0900
     39 H39        -2.9454    1.7066   49.8131 H       1  ZINC000647468483    0.0900
     40 H40        -2.7110    1.0836   51.4797 H       1  ZINC000647468483    0.0800
     41 H41        -5.1384    4.5156   52.9768 H       1  ZINC000647468483    0.1400
     42 H42        -7.2543    3.7290   53.9610 H       1  ZINC000647468483    0.1500
     43 H43        -8.0375    1.4359   53.5247 H       1  ZINC000647468483    0.1500
     44 H44        -4.5923    0.7173   51.1156 H       1  ZINC000647468483    0.1400
     45 H45        -0.7994    5.1395   54.8769 H       1  ZINC000647468483    0.0900
     46 H46        -0.8651    3.3909   55.2617 H       1  ZINC000647468483    0.1000
@<TRIPOS>BOND
     1     1     2   ar
     2     2     3   ar
     3     2     4    1
     4     4     5    1
     5     4    30    1
     6     4     6    1
     7     6     7    1
     8     6    31    1
     9     6    32    1
    10     7     8    1
    11     7    33    1
    12     7    34    1
    13     8     9    1
    14     8    10    1
    15     8    30    1
    16    10    11    1
    17    10    12    1
    18    10    13    1
    19    13    14    1
    20    13    18    1
    21    13    15    1
    22    15    16    1
    23    15    35    1
    24    15    36    1
    25    16    17    1
    26    16    37    1
    27    16    38    1
    28    17    18    1
    29    17    39    1
    30    17    40    1
    31    18    19    1
    32    18    20    1
    33    20    29   ar
    34    20    21   ar
    35    21    22   ar
    36    21    41    1
    37    22    23   ar
    38    22    42    1
    39    23    24   ar
    40    23    43    1
    41    24    25    1
    42    24    29   ar
    43    25    26    1
    44    25    27    1
    45    25    28    1
    46    29    44    1
    47    30    45    1
    48    30    46    1
@<TRIPOS>SUBSTRUCTURE
     1 ZINC000647468483        1 TEMP              0 ****  ****    0 ROOT


##########                                Name:    ZINC000928803822
##########                DOCK_Rotatable_Bonds:                   7
##########                         Heavy_Atoms:                  21
##########                    Molecular_Weight:             364.165
##########                DOCK_Rotatable_Bonds:                   7
##########                       Formal_Charge:         -0.00999978
##########                     HBond_Acceptors:                   7
##########                        HBond_Donors:                   1
##########                         Heavy_Atoms:                  21
##########                          Grid_Score:          -28.034510
##########                     Grid_vdw_energy:          -26.475636
##########                      Grid_es_energy:           -1.558875
##########           Internal_energy_repulsive:            6.376477

@<TRIPOS>MOLECULE
ZINC000928803822
 34 34 1 0 0
SMALL
USER_CHARGES


@<TRIPOS>ATOM
      1 C1         -5.9613    1.8924   50.7678 C.3     1  ZINC000928803822    0.0900
      2 N2         -5.1925    3.0947   51.0992 N.pl3   1  ZINC000928803822   -0.6300
      3 C3         -5.8567    4.3997   51.1437 C.3     1  ZINC000928803822    0.0900
      4 C4         -3.8260    2.9966   51.3728 C.ar    1  ZINC000928803822    0.2200
      5 C5         -2.9487    2.5668   50.3845 C.ar    1  ZINC000928803822   -0.1500
      6 C6         -1.5948    2.4681   50.6506 C.ar    1  ZINC000928803822   -0.0500
      7 Br7        -0.4088    1.8828   49.2990 Br      1  ZINC000928803822   -0.0400
      8 C8         -1.1067    2.7958   51.8999 C.ar    1  ZINC000928803822   -0.1200
      9 C9         -1.9802    3.2285   52.8991 C.ar    1  ZINC000928803822   -0.0800
     10 C10        -1.4601    3.5802   54.2378 C.2     1  ZINC000928803822    0.5700
     11 O11        -0.5329    4.3589   54.3444 O.2     1  ZINC000928803822   -0.5100
     12 N12        -2.0142    3.0373   55.3400 N.am    1  ZINC000928803822   -0.7200
     13 C13        -1.4978    3.3842   56.6663 C.3     1  ZINC000928803822    0.1100
     14 H14        -0.4859    3.7780   56.5705 H       1  ZINC000928803822    0.1400
     15 C15        -1.4773    2.1345   57.5486 C.3     1  ZINC000928803822   -0.0300
     16 C16        -0.3854    2.2442   58.5296 C.1     1  ZINC000928803822    0.2000
     17 N17         0.4573    2.3289   59.2867 N.1     1  ZINC000928803822   -0.4000
     18 C18        -2.3991    4.4437   57.3034 C.3     1  ZINC000928803822    0.4400
     19 F19        -3.7249    3.9972   57.2900 F       1  ZINC000928803822   -0.1800
     20 F20        -1.9953    4.6664   58.6243 F       1  ZINC000928803822   -0.1700
     21 F21        -2.3014    5.6362   56.5786 F       1  ZINC000928803822   -0.1600
     22 C22        -3.3444    3.3335   52.6289 C.ar    1  ZINC000928803822   -0.1200
     23 H23        -5.9424    1.7348   49.6894 H       1  ZINC000928803822    0.0600
     24 H24        -5.5212    1.0302   51.2688 H       1  ZINC000928803822    0.0700
     25 H25        -6.9923    2.0178   51.0987 H       1  ZINC000928803822    0.0700
     26 H26        -6.2310    4.5828   52.1508 H       1  ZINC000928803822    0.0500
     27 H27        -5.1444    5.1793   50.8734 H       1  ZINC000928803822    0.0700
     28 H28        -6.6888    4.4081   50.4397 H       1  ZINC000928803822    0.0700
     29 H29        -3.3251    2.3088   49.4056 H       1  ZINC000928803822    0.1400
     30 H30        -0.0490    2.7171   52.1041 H       1  ZINC000928803822    0.1300
     31 H31        -2.7549    2.4167   55.2550 H       1  ZINC000928803822    0.4100
     32 H32        -2.4289    2.0440   58.0726 H       1  ZINC000928803822    0.1400
     33 H33        -1.3199    1.2532   56.9267 H       1  ZINC000928803822    0.1300
     34 H34        -4.0248    3.6676   53.3982 H       1  ZINC000928803822    0.1500
@<TRIPOS>BOND
     1     1     2    1
     2     1    23    1
     3     1    24    1
     4     1    25    1
     5     2     3    1
     6     2     4    1
     7     3    26    1
     8     3    27    1
     9     3    28    1
    10     4    22   ar
    11     4     5   ar
    12     5     6   ar
    13     5    29    1
    14     6     7    1
    15     6     8   ar
    16     8     9   ar
    17     8    30    1
    18     9    10    1
    19     9    22   ar
    20    10    11    2
    21    10    12   am
    22    12    13    1
    23    12    31    1
    24    13    14    1
    25    13    15    1
    26    13    18    1
    27    15    16    1
    28    15    32    1
    29    15    33    1
    30    16    17    3
    31    18    19    1
    32    18    20    1
    33    18    21    1
    34    22    34    1
@<TRIPOS>SUBSTRUCTURE
     1 ZINC000928803822        1 TEMP              0 ****  ****    0 ROOT


##########                                Name:    ZINC000550011575
##########                DOCK_Rotatable_Bonds:                   6
##########                         Heavy_Atoms:                  28
##########                    Molecular_Weight:             423.935
##########                DOCK_Rotatable_Bonds:                   6
##########                       Formal_Charge:          -0.0100002
##########                     HBond_Acceptors:                   7
##########                        HBond_Donors:                   0
##########                         Heavy_Atoms:                  28
##########                          Grid_Score:          -28.033548
##########                     Grid_vdw_energy:          -27.947397
##########                      Grid_es_energy:           -0.086151
##########           Internal_energy_repulsive:           30.824089

@<TRIPOS>MOLECULE
ZINC000550011575
 51 53 1 0 0
SMALL
USER_CHARGES


@<TRIPOS>ATOM
      1 C1         -5.5006    5.3118   54.9586 C.3     1  ZINC000550011575   -0.1400
      2 C2         -5.0857    4.5582   53.6934 C.3     1  ZINC000550011575   -0.6100
      3 H3         -4.7623    3.5518   53.9595 H       1  ZINC000550011575    0.1500
      4 C4         -6.2583    4.4761   52.7503 C.2     1  ZINC000550011575    0.5400
      5 O5         -6.5342    5.4211   52.0421 O.2     1  ZINC000550011575   -0.5100
      6 N6         -7.0004    3.3525   52.6941 N.am    1  ZINC000550011575   -0.6000
      7 C7         -8.1393    3.2719   51.7761 C.3     1  ZINC000550011575    0.0600
      8 C8         -6.6682    2.2116   53.5510 C.3     1  ZINC000550011575    0.1500
      9 C9         -7.8545    1.2863   53.6380 C.ar    1  ZINC000550011575   -0.1500
     10 C10        -8.8521    1.5250   54.5674 C.ar    1  ZINC000550011575    0.1400
     11 F11        -8.7628    2.5875   55.3971 F       1  ZINC000550011575   -0.1100
     12 C12        -9.9420    0.6742   54.6460 C.ar    1  ZINC000550011575   -0.1500
     13 C13       -10.0332   -0.4122   53.7969 C.ar    1  ZINC000550011575   -0.0700
     14 C14        -9.0368   -0.6505   52.8686 C.ar    1  ZINC000550011575   -0.1300
     15 C15        -7.9499    0.2013   52.7852 C.ar    1  ZINC000550011575    0.0000
     16 Cl16       -6.6997   -0.0985   51.6187 Cl      1  ZINC000550011575   -0.0500
     17 S17        -3.7205    5.4382   52.8856 S.o2    1  ZINC000550011575    2.4500
     18 O18        -3.8907    5.3434   51.4780 O.2     1  ZINC000550011575   -0.9200
     19 O19        -3.5915    6.7206   53.4840 O.2     1  ZINC000550011575   -0.9100
     20 C20        -2.2900    4.4306   53.3640 C.3     1  ZINC000550011575   -0.5300
     21 H21        -2.5213    3.8914   54.2826 H       1  ZINC000550011575    0.1500
     22 C22        -1.0891    5.3431   53.6046 C.3     1  ZINC000550011575   -0.1100
     23 C23         0.1547    4.4668   53.7932 C.3     1  ZINC000550011575   -0.1100
     24 C24         0.5014    3.8265   52.4505 C.3     1  ZINC000550011575   -0.0900
     25 C25        -0.7093    3.1563   51.8555 C.ar    1  ZINC000550011575   -0.0600
     26 C26        -0.5018    2.2194   50.8517 C.ar    1  ZINC000550011575   -0.1200
     27 C27        -1.5700    1.5749   50.2625 C.ar    1  ZINC000550011575   -0.1100
     28 C28        -2.8577    1.8640   50.6734 C.ar    1  ZINC000550011575   -0.1100
     29 C29        -3.0658    2.7929   51.6723 C.ar    1  ZINC000550011575   -0.1500
     30 C30        -1.9912    3.4406   52.2687 C.ar    1  ZINC000550011575   -0.0800
     31 H31        -4.7106    5.2305   55.7053 H       1  ZINC000550011575    0.0900
     32 H32        -5.6665    6.3618   54.7181 H       1  ZINC000550011575    0.0900
     33 H33        -6.4199    4.8798   55.3538 H       1  ZINC000550011575    0.0800
     34 H34        -7.8046    2.8810   50.8152 H       1  ZINC000550011575    0.0700
     35 H35        -8.8967    2.6089   52.1942 H       1  ZINC000550011575    0.0800
     36 H36        -8.5640    4.2660   51.6359 H       1  ZINC000550011575    0.0700
     37 H37        -5.8190    1.6748   53.1282 H       1  ZINC000550011575    0.1000
     38 H38        -6.4120    2.5688   54.5484 H       1  ZINC000550011575    0.1100
     39 H39       -10.7206    0.8596   55.3711 H       1  ZINC000550011575    0.1500
     40 H40       -10.8831   -1.0757   53.8587 H       1  ZINC000550011575    0.1500
     41 H41        -9.1089   -1.5001   52.2057 H       1  ZINC000550011575    0.1400
     42 H42        -0.9489    5.9993   52.7456 H       1  ZINC000550011575    0.0800
     43 H43        -1.2562    5.9411   54.5005 H       1  ZINC000550011575    0.0900
     44 H44         0.9885    5.0812   54.1330 H       1  ZINC000550011575    0.0800
     45 H45        -0.0522    3.6890   54.5283 H       1  ZINC000550011575    0.0700
     46 H46         0.8585    4.5964   51.7667 H       1  ZINC000550011575    0.0800
     47 H47         1.2866    3.0851   52.5980 H       1  ZINC000550011575    0.0800
     48 H48         0.5040    1.9937   50.5295 H       1  ZINC000550011575    0.1300
     49 H49        -1.4007    0.8471   49.4826 H       1  ZINC000550011575    0.1300
     50 H50        -3.6981    1.3649   50.2140 H       1  ZINC000550011575    0.1300
     51 H51        -4.0722    3.0187   51.9924 H       1  ZINC000550011575    0.1700
@<TRIPOS>BOND
     1     1     2    1
     2     1    31    1
     3     1    32    1
     4     1    33    1
     5     2     3    1
     6     2     4    1
     7     2    17    1
     8     4     5    2
     9     4     6   am
    10     6     7    1
    11     6     8    1
    12     7    34    1
    13     7    35    1
    14     7    36    1
    15     8     9    1
    16     8    37    1
    17     8    38    1
    18     9    15   ar
    19     9    10   ar
    20    10    11    1
    21    10    12   ar
    22    12    13   ar
    23    12    39    1
    24    13    14   ar
    25    13    40    1
    26    14    15   ar
    27    14    41    1
    28    15    16    1
    29    17    18    2
    30    17    19    2
    31    17    20    1
    32    20    21    1
    33    20    30    1
    34    20    22    1
    35    22    23    1
    36    22    42    1
    37    22    43    1
    38    23    24    1
    39    23    44    1
    40    23    45    1
    41    24    25    1
    42    24    46    1
    43    24    47    1
    44    25    30   ar
    45    25    26   ar
    46    26    27   ar
    47    26    48    1
    48    27    28   ar
    49    27    49    1
    50    28    29   ar
    51    28    50    1
    52    29    30   ar
    53    29    51    1
@<TRIPOS>SUBSTRUCTURE
     1 ZINC000550011575        1 TEMP              0 ****  ****    0 ROOT


##########                                Name:    ZINC000588570917
##########                DOCK_Rotatable_Bonds:                   7
##########                         Heavy_Atoms:                  25
##########                    Molecular_Weight:             366.481
##########                DOCK_Rotatable_Bonds:                   7
##########                       Formal_Charge:          -0.0100006
##########                     HBond_Acceptors:                   7
##########                        HBond_Donors:                   1
##########                         Heavy_Atoms:                  25
##########                          Grid_Score:          -27.998991
##########                     Grid_vdw_energy:          -28.366354
##########                      Grid_es_energy:            0.367362
##########           Internal_energy_repulsive:           15.780822

@<TRIPOS>MOLECULE
ZINC000588570917
 51 52 1 0 0
SMALL
USER_CHARGES


@<TRIPOS>ATOM
      1 C1        -14.6082   -1.4221   55.8575 C.3     1  ZINC000588570917   -0.1300
      2 C2        -13.6581   -0.7199   54.9221 C.2     1  ZINC000588570917   -0.0500
      3 C3        -12.3497   -0.7458   55.1602 C.2     1  ZINC000588570917   -0.2000
      4 C4        -11.8175   -1.4757   56.3665 C.3     1  ZINC000588570917   -0.0900
      5 C5        -11.7366   -0.5113   57.5515 C.3     1  ZINC000588570917   -0.1500
      6 C6        -11.4223   -0.0619   54.2464 C.2     1  ZINC000588570917    0.5600
      7 O7        -11.8440    0.4668   53.2355 O.2     1  ZINC000588570917   -0.5100
      8 N8        -10.1052   -0.0211   54.5291 N.am    1  ZINC000588570917   -0.6800
      9 C9         -9.2233    0.6291   53.6603 C.ar    1  ZINC000588570917    0.2100
     10 C10        -9.3158    2.0023   53.4739 C.ar    1  ZINC000588570917   -0.1700
     11 C11        -8.4428    2.6415   52.6155 C.ar    1  ZINC000588570917    0.0000
     12 C12        -7.4776    1.9157   51.9418 C.ar    1  ZINC000588570917   -0.7000
     13 S13        -6.3658    2.7351   50.8475 S.o2    1  ZINC000588570917    2.6900
     14 O14        -6.2861    1.9297   49.6795 O.2     1  ZINC000588570917   -0.9500
     15 O15        -6.7586    4.1005   50.8249 O.2     1  ZINC000588570917   -0.9500
     16 N16        -4.8663    2.6914   51.5489 N.am    1  ZINC000588570917   -1.0000
     17 C17        -3.7328    2.0402   50.8733 C.3     1  ZINC000588570917    0.0900
     18 C18        -2.5502    3.0157   50.8642 C.3     1  ZINC000588570917    0.0700
     19 H19        -2.7816    3.8623   50.2179 H       1  ZINC000588570917    0.0700
     20 C20        -1.3022    2.3008   50.3425 C.3     1  ZINC000588570917   -0.1500
     21 O21        -2.3138    3.4812   52.1950 O.3     1  ZINC000588570917   -0.3700
     22 C22        -3.4018    4.2171   52.7595 C.3     1  ZINC000588570917    0.0800
     23 H23        -3.1250    4.5717   53.7524 H       1  ZINC000588570917    0.1200
     24 C24        -3.7301    5.4124   51.8628 C.3     1  ZINC000588570917   -0.1900
     25 C25        -4.6266    3.3081   52.8632 C.3     1  ZINC000588570917    0.0900
     26 C26        -7.3825    0.5484   52.1255 C.ar    1  ZINC000588570917    0.0000
     27 C27        -8.2491   -0.0961   52.9862 C.ar    1  ZINC000588570917   -0.1400
     28 H28       -15.6304   -1.2919   55.5023 H       1  ZINC000588570917    0.0600
     29 H29       -14.3675   -2.4847   55.8897 H       1  ZINC000588570917    0.0800
     30 H30       -14.5141   -0.9978   56.8571 H       1  ZINC000588570917    0.0800
     31 H31       -14.0394   -0.1956   54.0583 H       1  ZINC000588570917    0.1300
     32 H32       -12.4842   -2.3014   56.6149 H       1  ZINC000588570917    0.0700
     33 H33       -10.8235   -1.8649   56.1463 H       1  ZINC000588570917    0.0800
     34 H34       -12.7307   -0.1221   57.7717 H       1  ZINC000588570917    0.0500
     35 H35       -11.3517   -1.0392   58.4240 H       1  ZINC000588570917    0.0600
     36 H36       -11.0699    0.3145   57.3031 H       1  ZINC000588570917    0.0600
     37 H37        -9.7689   -0.4427   55.3353 H       1  ZINC000588570917    0.4100
     38 H38       -10.0697    2.5697   53.9994 H       1  ZINC000588570917    0.1400
     39 H39        -8.5144    3.7092   52.4699 H       1  ZINC000588570917    0.1400
     40 H40        -3.4565    1.1334   51.4114 H       1  ZINC000588570917    0.0900
     41 H41        -4.0102    1.7900   49.8493 H       1  ZINC000588570917    0.1000
     42 H42        -1.4852    1.9429   49.3293 H       1  ZINC000588570917    0.0700
     43 H43        -0.4617    2.9949   50.3362 H       1  ZINC000588570917    0.0700
     44 H44        -1.0702    1.4552   50.9901 H       1  ZINC000588570917    0.0700
     45 H45        -4.0085    5.0568   50.8708 H       1  ZINC000588570917    0.0600
     46 H46        -4.5597    5.9729   52.2939 H       1  ZINC000588570917    0.0700
     47 H47        -2.8562    6.0591   51.7850 H       1  ZINC000588570917    0.0700
     48 H48        -5.4958    3.8956   53.1588 H       1  ZINC000588570917    0.1000
     49 H49        -4.4427    2.5270   53.6010 H       1  ZINC000588570917    0.0900
     50 H50        -6.6275   -0.0155   51.5979 H       1  ZINC000588570917    0.1400
     51 H51        -8.1741   -1.1639   53.1295 H       1  ZINC000588570917    0.1500
@<TRIPOS>BOND
     1     1     2    1
     2     1    28    1
     3     1    29    1
     4     1    30    1
     5     2     3    2
     6     2    31    1
     7     3     4    1
     8     3     6    1
     9     4     5    1
    10     4    32    1
    11     4    33    1
    12     5    34    1
    13     5    35    1
    14     5    36    1
    15     6     7    2
    16     6     8   am
    17     8     9    1
    18     8    37    1
    19     9    27   ar
    20     9    10   ar
    21    10    11   ar
    22    10    38    1
    23    11    12   ar
    24    11    39    1
    25    12    13    1
    26    12    26   ar
    27    13    14    2
    28    13    15    2
    29    13    16   am
    30    16    25    1
    31    16    17    1
    32    17    18    1
    33    17    40    1
    34    17    41    1
    35    18    19    1
    36    18    20    1
    37    18    21    1
    38    20    42    1
    39    20    43    1
    40    20    44    1
    41    21    22    1
    42    22    23    1
    43    22    24    1
    44    22    25    1
    45    24    45    1
    46    24    46    1
    47    24    47    1
    48    25    48    1
    49    25    49    1
    50    26    27   ar
    51    26    50    1
    52    27    51    1
@<TRIPOS>SUBSTRUCTURE
     1 ZINC000588570917        1 TEMP              0 ****  ****    0 ROOT


##########                                Name:    ZINC000879023512
##########                DOCK_Rotatable_Bonds:                   4
##########                         Heavy_Atoms:                  20
##########                    Molecular_Weight:             346.156
##########                DOCK_Rotatable_Bonds:                   4
##########                       Formal_Charge:        -5.96046e-08
##########                     HBond_Acceptors:                   7
##########                        HBond_Donors:                   1
##########                         Heavy_Atoms:                  20
##########                          Grid_Score:          -27.953283
##########                     Grid_vdw_energy:          -27.203447
##########                      Grid_es_energy:           -0.749835
##########           Internal_energy_repulsive:            3.043060

@<TRIPOS>MOLECULE
ZINC000879023512
 33 34 1 0 0
SMALL
USER_CHARGES


@<TRIPOS>ATOM
      1 O1         -1.7874    2.0739   49.5058 O.2     1  ZINC000879023512   -0.5600
      2 C2         -1.0306    2.1269   50.4561 C.2     1  ZINC000879023512    0.7200
      3 N3         -1.5200    2.3177   51.6973 N.am    1  ZINC000879023512   -0.6800
      4 C4         -2.8989    2.4604   51.8917 C.ar    1  ZINC000879023512    0.1800
      5 C5         -3.4186    3.6741   52.3213 C.ar    1  ZINC000879023512   -0.0900
      6 C6         -4.7797    3.8122   52.5124 C.ar    1  ZINC000879023512   -0.0700
      7 C7         -5.6247    2.7426   52.2766 C.ar    1  ZINC000879023512   -0.0700
      8 Br8        -7.4873    2.9354   52.5392 Br      1  ZINC000879023512    0.0200
      9 C9         -5.1092    1.5318   51.8483 C.ar    1  ZINC000879023512    0.0000
     10 N10        -6.0163    0.3895   51.5968 N.pl3   1  ZINC000879023512    0.0200
     11 O11        -5.5633   -0.6764   51.2199 O.2     1  ZINC000879023512   -0.1500
     12 O12        -7.2158    0.5154   51.7670 O.2     1  ZINC000879023512   -0.1300
     13 C13        -3.7501    1.3900   51.6497 C.ar    1  ZINC000879023512   -0.0500
     14 N14         0.2969    1.9895   50.2688 N.am    1  ZINC000879023512   -0.6300
     15 C15         0.9629    1.7837   48.9743 C.3     1  ZINC000879023512    0.0900
     16 C16         2.4755    1.6568   49.2522 C.3     1  ZINC000879023512   -0.1200
     17 C17         2.5203    1.2325   50.7440 C.3     1  ZINC000879023512   -0.1400
     18 H18         2.3692    0.1582   50.8494 H       1  ZINC000879023512    0.1000
     19 C19         3.8339    1.6653   51.3981 C.3     1  ZINC000879023512    0.0700
     20 F20         4.9073    1.0671   50.7294 F       1  ZINC000879023512   -0.2100
     21 C21         1.3224    2.0272   51.3272 C.3     1  ZINC000879023512    0.1300
     22 H22        -0.9167    2.3560   52.4558 H       1  ZINC000879023512    0.4200
     23 H23        -2.7593    4.5092   52.5064 H       1  ZINC000879023512    0.1600
     24 H24        -5.1845    4.7561   52.8466 H       1  ZINC000879023512    0.1600
     25 H25        -3.3484    0.4450   51.3151 H       1  ZINC000879023512    0.1800
     26 H26         0.5936    0.8701   48.5085 H       1  ZINC000879023512    0.0700
     27 H27         0.7762    2.6365   48.3216 H       1  ZINC000879023512    0.0700
     28 H28         2.9208    0.8890   48.6194 H       1  ZINC000879023512    0.0900
     29 H29         2.9758    2.6143   49.1085 H       1  ZINC000879023512    0.0900
     30 H30         3.9286    2.7497   51.3401 H       1  ZINC000879023512    0.0800
     31 H31         3.8388    1.3557   52.4432 H       1  ZINC000879023512    0.0800
     32 H32         1.6169    3.0546   51.5411 H       1  ZINC000879023512    0.0800
     33 H33         0.9493    1.5429   52.2296 H       1  ZINC000879023512    0.0900
@<TRIPOS>BOND
     1     1     2    2
     2     2     3   am
     3     2    14   am
     4     3     4    1
     5     3    22    1
     6     4    13   ar
     7     4     5   ar
     8     5     6   ar
     9     5    23    1
    10     6     7   ar
    11     6    24    1
    12     7     8    1
    13     7     9   ar
    14     9    10    1
    15     9    13   ar
    16    10    11    2
    17    10    12    2
    18    13    25    1
    19    14    21    1
    20    14    15    1
    21    15    16    1
    22    15    26    1
    23    15    27    1
    24    16    17    1
    25    16    28    1
    26    16    29    1
    27    17    18    1
    28    17    19    1
    29    17    21    1
    30    19    20    1
    31    19    30    1
    32    19    31    1
    33    21    32    1
    34    21    33    1
@<TRIPOS>SUBSTRUCTURE
     1 ZINC000879023512        1 TEMP              0 ****  ****    0 ROOT


##########                                Name:    ZINC000504860563
##########                DOCK_Rotatable_Bonds:                   6
##########                         Heavy_Atoms:                  25
##########                    Molecular_Weight:             370.786
##########                DOCK_Rotatable_Bonds:                   6
##########                       Formal_Charge:                0.01
##########                     HBond_Acceptors:                   9
##########                        HBond_Donors:                   0
##########                         Heavy_Atoms:                  25
##########                          Grid_Score:          -27.942234
##########                     Grid_vdw_energy:          -28.755983
##########                      Grid_es_energy:            0.813749
##########           Internal_energy_repulsive:           14.336261

@<TRIPOS>MOLECULE
ZINC000504860563
 42 44 1 0 0
SMALL
USER_CHARGES


@<TRIPOS>ATOM
      1 O1         -5.8835    3.4272   54.4579 O.2     1  ZINC000504860563   -0.5100
      2 C2         -5.8498    2.8487   53.3894 C.2     1  ZINC000504860563    0.5700
      3 C3         -6.8222    1.7735   53.1000 C.ar    1  ZINC000504860563    0.0500
      4 N4         -6.4143    0.5102   53.0522 N.ar    1  ZINC000504860563   -0.4100
      5 C5         -7.2463   -0.4748   52.7987 C.ar    1  ZINC000504860563    0.0600
      6 C6         -8.5930   -0.2334   52.5692 C.ar    1  ZINC000504860563   -0.1000
      7 C7         -9.0673    1.0656   52.6081 C.ar    1  ZINC000504860563   -0.1700
      8 C8         -8.1674    2.0925   52.8841 C.ar    1  ZINC000504860563    0.1400
      9 O9         -8.5864    3.3818   52.9329 O.3     1  ZINC000504860563   -0.2600
     10 C10        -9.1866    3.9141   51.7504 C.3     1  ZINC000504860563   -0.0100
     11 C11        -8.1339    4.0139   50.6446 C.3     1  ZINC000504860563    0.2800
     12 F12        -8.7360    4.4713   49.4675 F       1  ZINC000504860563   -0.1900
     13 F13        -7.1319    4.9092   51.0341 F       1  ZINC000504860563   -0.1900
     14 N14        -4.9294    3.1912   52.4663 N.am    1  ZINC000504860563   -0.6000
     15 C15        -3.9525    4.2536   52.7414 C.3     1  ZINC000504860563    0.0800
     16 C16        -2.5440    3.7045   52.4941 C.3     1  ZINC000504860563   -0.1500
     17 C17        -2.4661    3.1305   51.0775 C.3     1  ZINC000504860563    0.1600
     18 N18        -1.1110    2.6342   50.8258 N.pl3   1  ZINC000504860563   -0.3600
     19 C19        -0.6321    2.1976   49.6410 C.2     1  ZINC000504860563    0.0700
     20 C20         0.6567    1.8282   49.8282 C.2     1  ZINC000504860563   -0.1900
     21 Cl21        1.7248    1.1958   48.6145 Cl      1  ZINC000504860563   -0.0400
     22 C22         0.9760    2.0466   51.1730 C.2     1  ZINC000504860563    0.0600
     23 N23        -0.0811    2.5344   51.7702 N.2     1  ZINC000504860563   -0.2800
     24 C24        -3.4651    1.9798   50.9359 C.3     1  ZINC000504860563   -0.1400
     25 C25        -4.8801    2.5052   51.1679 C.3     1  ZINC000504860563    0.1200
     26 H26        -6.8756   -1.4887   52.7681 H       1  ZINC000504860563    0.1700
     27 H27        -9.2654   -1.0526   52.3616 H       1  ZINC000504860563    0.1500
     28 H28       -10.1115    1.2781   52.4326 H       1  ZINC000504860563    0.1500
     29 H29        -9.9937    3.2573   51.4254 H       1  ZINC000504860563    0.1000
     30 H30        -9.5875    4.9055   51.9610 H       1  ZINC000504860563    0.1000
     31 H31        -7.6956    3.0313   50.4705 H       1  ZINC000504860563    0.1300
     32 H32        -4.1365    5.0996   52.0792 H       1  ZINC000504860563    0.0700
     33 H33        -4.0430    4.5733   53.7796 H       1  ZINC000504860563    0.1600
     34 H34        -1.8160    4.5086   52.6013 H       1  ZINC000504860563    0.0900
     35 H35        -2.3277    2.9183   53.2174 H       1  ZINC000504860563    0.0700
     36 H36        -2.7070    3.9111   50.3557 H       1  ZINC000504860563    0.1100
     37 H37        -1.1794    2.1509   48.7111 H       1  ZINC000504860563    0.1800
     38 H38         1.9311    1.8498   51.6371 H       1  ZINC000504860563    0.1900
     39 H39        -3.3925    1.5563   49.9341 H       1  ZINC000504860563    0.0900
     40 H40        -3.2402    1.2099   51.6740 H       1  ZINC000504860563    0.0800
     41 H41        -5.5839    1.6729   51.1660 H       1  ZINC000504860563    0.1000
     42 H42        -5.1423    3.2099   50.3787 H       1  ZINC000504860563    0.0800
@<TRIPOS>BOND
     1     1     2    2
     2     2     3    1
     3     2    14   am
     4     3     8   ar
     5     3     4   ar
     6     4     5   ar
     7     5     6   ar
     8     5    26    1
     9     6     7   ar
    10     6    27    1
    11     7     8   ar
    12     7    28    1
    13     8     9    1
    14     9    10    1
    15    10    11    1
    16    10    29    1
    17    10    30    1
    18    11    12    1
    19    11    13    1
    20    11    31    1
    21    14    25    1
    22    14    15    1
    23    15    16    1
    24    15    32    1
    25    15    33    1
    26    16    17    1
    27    16    34    1
    28    16    35    1
    29    17    18    1
    30    17    24    1
    31    17    36    1
    32    18    23    1
    33    18    19    1
    34    19    20    2
    35    19    37    1
    36    20    21    1
    37    20    22    1
    38    22    23    2
    39    22    38    1
    40    24    25    1
    41    24    39    1
    42    24    40    1
    43    25    41    1
    44    25    42    1
@<TRIPOS>SUBSTRUCTURE
     1 ZINC000504860563        1 TEMP              0 ****  ****    0 ROOT


##########                                Name:    ZINC000156038173
##########                DOCK_Rotatable_Bonds:                  10
##########                         Heavy_Atoms:                  27
##########                    Molecular_Weight:             396.357
##########                DOCK_Rotatable_Bonds:                  10
##########                       Formal_Charge:         -0.00999981
##########                     HBond_Acceptors:                  10
##########                        HBond_Donors:                   1
##########                         Heavy_Atoms:                  27
##########                          Grid_Score:          -27.920961
##########                     Grid_vdw_energy:          -27.592157
##########                      Grid_es_energy:           -0.328804
##########           Internal_energy_repulsive:           42.654873

@<TRIPOS>MOLECULE
ZINC000156038173
 48 48 1 0 0
SMALL
USER_CHARGES


@<TRIPOS>ATOM
      1 C1         -8.1883   -0.9073   52.3223 C.3     1  ZINC000156038173    0.0700
      2 N2         -7.9700    0.5238   52.5470 N.am    1  ZINC000156038173   -0.6300
      3 C3         -8.6646    1.2078   53.6407 C.3     1  ZINC000156038173    0.1500
      4 C4        -10.1726    1.1790   53.3841 C.3     1  ZINC000156038173   -0.1400
      5 C5        -10.8074    0.1131   54.2397 C.2     1  ZINC000156038173    0.4700
      6 O6        -11.0169   -0.9847   53.7807 O.2     1  ZINC000156038173   -0.5000
      7 O7        -11.1400    0.3833   55.5118 O.3     1  ZINC000156038173   -0.3500
      8 C8        -11.7452   -0.6917   56.2775 C.3     1  ZINC000156038173    0.1200
      9 C9        -12.0462   -0.2013   57.6952 C.3     1  ZINC000156038173   -0.1800
     10 C10       -13.0465   -1.1290   55.6021 C.3     1  ZINC000156038173   -0.1400
     11 C11       -10.7806   -1.8776   56.3421 C.3     1  ZINC000156038173   -0.1800
     12 C12        -7.1303    1.2111   51.7477 C.2     1  ZINC000156038173    0.7100
     13 O13        -6.5551    0.6439   50.8391 O.2     1  ZINC000156038173   -0.5700
     14 N14        -6.9284    2.5274   51.9555 N.am    1  ZINC000156038173   -0.7400
     15 C15        -6.0171    3.2750   51.0857 C.3     1  ZINC000156038173    0.1700
     16 H16        -6.1606    2.9595   50.0522 H       1  ZINC000156038173    0.1500
     17 C17        -4.5933    3.0057   51.4998 C.ar    1  ZINC000156038173   -0.1300
     18 C18        -4.1936    3.2514   52.7999 C.ar    1  ZINC000156038173   -0.0700
     19 C19        -2.8878    3.0049   53.1814 C.ar    1  ZINC000156038173   -0.1000
     20 C20        -1.9793    2.5125   52.2637 C.ar    1  ZINC000156038173   -0.1100
     21 C21        -2.3764    2.2655   50.9609 C.ar    1  ZINC000156038173    0.0700
     22 F22        -1.4890    1.7841   50.0632 F       1  ZINC000156038173   -0.1200
     23 C23        -3.6874    2.5072   50.5798 C.ar    1  ZINC000156038173    0.1000
     24 F24        -4.0773    2.2669   49.3088 F       1  ZINC000156038173   -0.1200
     25 C25        -6.3092    4.7719   51.2072 C.3     1  ZINC000156038173    0.4500
     26 F26        -7.1920    5.1586   50.1931 F       1  ZINC000156038173   -0.1700
     27 F27        -6.8871    5.0346   52.4539 F       1  ZINC000156038173   -0.1600
     28 F28        -5.1154    5.4914   51.0857 F       1  ZINC000156038173   -0.1700
     29 H29        -9.0227   -1.0440   51.6345 H       1  ZINC000156038173    0.0600
     30 H30        -7.2885   -1.3493   51.8943 H       1  ZINC000156038173    0.0700
     31 H31        -8.4160   -1.3935   53.2709 H       1  ZINC000156038173    0.0800
     32 H32        -8.4464    0.7028   54.5817 H       1  ZINC000156038173    0.1000
     33 H33        -8.3251    2.2421   53.6961 H       1  ZINC000156038173    0.0900
     34 H34       -10.6023    2.1490   53.6339 H       1  ZINC000156038173    0.1100
     35 H35       -10.3582    0.9592   52.3328 H       1  ZINC000156038173    0.1100
     36 H36       -12.7334    0.6435   57.6492 H       1  ZINC000156038173    0.0600
     37 H37       -12.5006   -1.0083   58.2700 H       1  ZINC000156038173    0.0700
     38 H38       -11.1192    0.1102   58.1763 H       1  ZINC000156038173    0.0800
     39 H39       -12.8321   -1.4784   54.5921 H       1  ZINC000156038173    0.0700
     40 H40       -13.5009   -1.9360   56.1769 H       1  ZINC000156038173    0.0800
     41 H41       -13.7337   -0.2841   55.5560 H       1  ZINC000156038173    0.0700
     42 H42        -9.8536   -1.5661   56.8233 H       1  ZINC000156038173    0.0800
     43 H43       -11.2350   -2.6846   56.9170 H       1  ZINC000156038173    0.0700
     44 H44       -10.5662   -2.2270   55.3321 H       1  ZINC000156038173    0.0600
     45 H45        -7.3864    2.9797   52.6812 H       1  ZINC000156038173    0.4100
     46 H46        -4.9020    3.6365   53.5184 H       1  ZINC000156038173    0.1400
     47 H47        -2.5772    3.1978   54.1977 H       1  ZINC000156038173    0.1500
     48 H48        -0.9594    2.3207   52.5629 H       1  ZINC000156038173    0.1500
@<TRIPOS>BOND
     1     1     2    1
     2     1    29    1
     3     1    30    1
     4     1    31    1
     5     2     3    1
     6     2    12   am
     7     3     4    1
     8     3    32    1
     9     3    33    1
    10     4     5    1
    11     4    34    1
    12     4    35    1
    13     5     6    2
    14     5     7    1
    15     7     8    1
    16     8     9    1
    17     8    10    1
    18     8    11    1
    19     9    36    1
    20     9    37    1
    21     9    38    1
    22    10    39    1
    23    10    40    1
    24    10    41    1
    25    11    42    1
    26    11    43    1
    27    11    44    1
    28    12    13    2
    29    12    14   am
    30    14    15    1
    31    14    45    1
    32    15    16    1
    33    15    17    1
    34    15    25    1
    35    17    23   ar
    36    17    18   ar
    37    18    19   ar
    38    18    46    1
    39    19    20   ar
    40    19    47    1
    41    20    21   ar
    42    20    48    1
    43    21    22    1
    44    21    23   ar
    45    23    24    1
    46    25    26    1
    47    25    27    1
    48    25    28    1
@<TRIPOS>SUBSTRUCTURE
     1 ZINC000156038173        1 TEMP              0 ****  ****    0 ROOT


##########                                Name:    ZINC000288921983
##########                DOCK_Rotatable_Bonds:                   6
##########                         Heavy_Atoms:                  26
##########                    Molecular_Weight:             356.428
##########                DOCK_Rotatable_Bonds:                   6
##########                       Formal_Charge:           0.0199997
##########                     HBond_Acceptors:                   8
##########                        HBond_Donors:                   1
##########                         Heavy_Atoms:                  26
##########                          Grid_Score:          -27.893291
##########                     Grid_vdw_energy:          -27.127924
##########                      Grid_es_energy:           -0.765368
##########           Internal_energy_repulsive:           59.664864

@<TRIPOS>MOLECULE
ZINC000288921983
 50 53 1 0 0
SMALL
USER_CHARGES


@<TRIPOS>ATOM
      1 C1         -9.1651    2.1728   60.0963 C.3     1  ZINC000288921983   -0.1400
      2 C2         -8.0006    3.1649   60.1210 C.3     1  ZINC000288921983   -0.0500
      3 C3         -7.4504    3.3287   58.7276 C.ar    1  ZINC000288921983    0.3000
      4 N4         -6.6611    2.3940   58.2375 N.ar    1  ZINC000288921983   -0.5000
      5 C5         -6.1579    2.5005   57.0189 C.ar    1  ZINC000288921983    0.1300
      6 C6         -6.4736    3.6196   56.2532 C.ar    1  ZINC000288921983    0.0500
      7 N7         -5.9630    3.7715   54.9585 N.am    1  ZINC000288921983   -0.6700
      8 C8         -6.4686    3.0414   53.9447 C.2     1  ZINC000288921983    0.7100
      9 O9         -7.3681    2.2507   54.1545 O.2     1  ZINC000288921983   -0.5500
     10 N10        -5.9770    3.1876   52.6984 N.am    1  ZINC000288921983   -0.6200
     11 C11        -4.8901    4.1389   52.4292 C.3     1  ZINC000288921983    0.1100
     12 C12        -3.7521    3.3991   51.7188 C.3     1  ZINC000288921983   -0.1400
     13 C13        -4.3018    2.7034   50.4714 C.3     1  ZINC000288921983   -0.1200
     14 C14        -5.3618    1.6788   50.8821 C.3     1  ZINC000288921983   -0.1300
     15 C15        -6.5138    2.3945   51.5841 C.3     1  ZINC000288921983    0.2700
     16 H16        -7.0154    3.0579   50.8795 H       1  ZINC000288921983    0.1100
     17 C17        -7.4957    1.3784   52.1080 C.2     1  ZINC000288921983    0.1700
     18 N18        -7.2122    0.1794   52.5311 N.2     1  ZINC000288921983   -0.2500
     19 N19        -8.2941   -0.4086   52.9046 N.2     1  ZINC000288921983   -0.2700
     20 C20        -9.3045    0.3955   52.7325 C.2     1  ZINC000288921983    0.1800
     21 C21       -10.7476    0.0937   53.0448 C.3     1  ZINC000288921983   -0.0300
     22 C22       -10.9326   -1.0429   54.0640 C.3     1  ZINC000288921983   -0.1200
     23 C23       -10.8654    0.0343   55.1594 C.3     1  ZINC000288921983   -0.1400
     24 C24       -11.3591    1.0321   54.0985 C.3     1  ZINC000288921983   -0.1200
     25 O25        -8.8234    1.5450   52.2300 O.3     1  ZINC000288921983   -0.2200
     26 C26        -7.3109    4.5834   56.8086 C.ar    1  ZINC000288921983    0.1600
     27 N27        -7.7771    4.3999   58.0327 N.ar    1  ZINC000288921983   -0.5000
     28 H28        -9.5629    2.0544   61.1042 H       1  ZINC000288921983    0.0700
     29 H29        -9.9486    2.5486   59.4382 H       1  ZINC000288921983    0.0600
     30 H30        -8.8133    1.2088   59.7289 H       1  ZINC000288921983    0.0600
     31 H31        -8.3523    4.1290   60.4885 H       1  ZINC000288921983    0.0900
     32 H32        -7.2171    2.7892   60.7791 H       1  ZINC000288921983    0.0900
     33 H33        -5.5114    1.7308   56.6238 H       1  ZINC000288921983    0.1700
     34 H34        -5.2453    4.4023   54.7912 H       1  ZINC000288921983    0.4100
     35 H35        -5.2576    4.9427   51.7914 H       1  ZINC000288921983    0.0800
     36 H36        -4.5258    4.5530   53.3694 H       1  ZINC000288921983    0.0800
     37 H37        -2.9807    4.1121   51.4277 H       1  ZINC000288921983    0.0900
     38 H38        -3.3256    2.6555   52.3920 H       1  ZINC000288921983    0.0700
     39 H39        -4.7503    3.4447   49.8101 H       1  ZINC000288921983    0.0700
     40 H40        -3.4893    2.1966   49.9506 H       1  ZINC000288921983    0.0800
     41 H41        -5.7360    1.1672   49.9953 H       1  ZINC000288921983    0.0900
     42 H42        -4.9200    0.9513   51.5631 H       1  ZINC000288921983    0.0900
     43 H43       -11.3602   -0.0163   52.1500 H       1  ZINC000288921983    0.1000
     44 H44       -11.9020   -1.5367   53.9961 H       1  ZINC000288921983    0.1000
     45 H45       -10.0996   -1.7453   54.0907 H       1  ZINC000288921983    0.0800
     46 H46       -11.5739   -0.1249   55.9723 H       1  ZINC000288921983    0.0700
     47 H47        -9.8539    0.2363   55.5116 H       1  ZINC000288921983    0.1000
     48 H48       -10.8704    2.0049   54.1530 H       1  ZINC000288921983    0.0700
     49 H49       -12.4451    1.1056   54.0401 H       1  ZINC000288921983    0.1000
     50 H50        -7.5790    5.4659   56.2467 H       1  ZINC000288921983    0.1800
@<TRIPOS>BOND
     1     1     2    1
     2     1    28    1
     3     1    29    1
     4     1    30    1
     5     2     3    1
     6     2    31    1
     7     2    32    1
     8     3    27   ar
     9     3     4   ar
    10     4     5   ar
    11     5     6   ar
    12     5    33    1
    13     6     7    1
    14     6    26   ar
    15     7     8   am
    16     7    34    1
    17     8     9    2
    18     8    10   am
    19    10    15    1
    20    10    11    1
    21    11    12    1
    22    11    35    1
    23    11    36    1
    24    12    13    1
    25    12    37    1
    26    12    38    1
    27    13    14    1
    28    13    39    1
    29    13    40    1
    30    14    15    1
    31    14    41    1
    32    14    42    1
    33    15    16    1
    34    15    17    1
    35    17    25    1
    36    17    18    2
    37    18    19    1
    38    19    20    2
    39    20    21    1
    40    20    25    1
    41    21    24    1
    42    21    22    1
    43    21    43    1
    44    22    23    1
    45    22    44    1
    46    22    45    1
    47    23    24    1
    48    23    46    1
    49    23    47    1
    50    24    48    1
    51    24    49    1
    52    26    27   ar
    53    26    50    1
@<TRIPOS>SUBSTRUCTURE
     1 ZINC000288921983        1 TEMP              0 ****  ****    0 ROOT


##########                                Name:    ZINC000546115054
##########                DOCK_Rotatable_Bonds:                  10
##########                         Heavy_Atoms:                  26
##########                    Molecular_Weight:             363.457
##########                DOCK_Rotatable_Bonds:                  10
##########                       Formal_Charge:        -4.39584e-07
##########                     HBond_Acceptors:                   7
##########                        HBond_Donors:                   2
##########                         Heavy_Atoms:                  26
##########                          Grid_Score:          -27.860653
##########                     Grid_vdw_energy:          -27.214420
##########                      Grid_es_energy:           -0.646233
##########           Internal_energy_repulsive:           33.328709

@<TRIPOS>MOLECULE
ZINC000546115054
 55 56 1 0 0
SMALL
USER_CHARGES


@<TRIPOS>ATOM
      1 C1        -13.9848    1.2976   50.4375 C.3     1  ZINC000546115054   -0.1500
      2 C2        -13.5333    0.1415   51.3324 C.3     1  ZINC000546115054    0.0600
      3 O3        -12.9928    0.6633   52.5481 O.3     1  ZINC000546115054   -0.3700
      4 C4        -12.6506   -0.3377   53.5088 C.3     1  ZINC000546115054    0.0500
      5 H5        -12.6133   -1.3123   53.0219 H       1  ZINC000546115054    0.0700
      6 C6        -13.7030   -0.3612   54.6203 C.3     1  ZINC000546115054    0.0400
      7 O7        -13.3283   -1.3224   55.6091 O.3     1  ZINC000546115054   -0.3700
      8 C8        -12.0795   -1.0470   56.2469 C.3     1  ZINC000546115054    0.0600
      9 C9        -10.9619   -1.0511   55.2007 C.3     1  ZINC000546115054   -0.1600
     10 C10       -11.2819   -0.0167   54.1170 C.3     1  ZINC000546115054    0.1700
     11 H11       -11.3055    0.9793   54.5592 H       1  ZINC000546115054    0.1000
     12 N12       -10.2543   -0.0658   53.0741 N.am    1  ZINC000546115054   -0.7300
     13 C13        -9.1319    0.6700   53.1988 C.2     1  ZINC000546115054    0.7200
     14 O14        -8.9730    1.3754   54.1763 O.2     1  ZINC000546115054   -0.5900
     15 N15        -8.1858    0.6236   52.2400 N.am    1  ZINC000546115054   -0.7200
     16 C16        -6.9666    1.4247   52.3748 C.3     1  ZINC000546115054    0.1600
     17 H17        -6.3853    1.0618   53.2224 H       1  ZINC000546115054    0.1200
     18 C18        -6.1340    1.3051   51.0968 C.3     1  ZINC000546115054   -0.1000
     19 C19        -4.8905    2.1464   51.2268 C.ar    1  ZINC000546115054   -0.0800
     20 C20        -4.9381    3.4988   50.9438 C.ar    1  ZINC000546115054   -0.1100
     21 C21        -3.7975    4.2704   51.0631 C.ar    1  ZINC000546115054   -0.1200
     22 C22        -2.6093    3.6900   51.4656 C.ar    1  ZINC000546115054   -0.1200
     23 C23        -2.5618    2.3379   51.7494 C.ar    1  ZINC000546115054   -0.1200
     24 C24        -3.7034    1.5670   51.6344 C.ar    1  ZINC000546115054   -0.1100
     25 C25        -7.3363    2.8682   52.6003 C.2     1  ZINC000546115054    0.5000
     26 O26        -8.2066    3.3829   51.9306 O.2     1  ZINC000546115054   -0.5200
     27 N27        -6.6999    3.5870   53.5462 N.am    1  ZINC000546115054   -0.6200
     28 C28        -5.6475    2.9657   54.3540 C.3     1  ZINC000546115054    0.0800
     29 C29        -7.0606    4.9896   53.7665 C.3     1  ZINC000546115054    0.0700
     30 H30       -14.3970    0.8996   49.5103 H       1  ZINC000546115054    0.0700
     31 H31       -14.7477    1.8801   50.9539 H       1  ZINC000546115054    0.0600
     32 H32       -13.1312    1.9364   50.2110 H       1  ZINC000546115054    0.0600
     33 H33       -14.3869   -0.4973   51.5590 H       1  ZINC000546115054    0.0500
     34 H34       -12.7703   -0.4410   50.8161 H       1  ZINC000546115054    0.0500
     35 H35       -13.7692    0.6253   55.0791 H       1  ZINC000546115054    0.0600
     36 H36       -14.6711   -0.6318   54.1987 H       1  ZINC000546115054    0.1000
     37 H37       -12.1245   -0.0694   56.7270 H       1  ZINC000546115054    0.0600
     38 H38       -11.8781   -1.8115   56.9971 H       1  ZINC000546115054    0.1000
     39 H39       -10.0153   -0.7977   55.6780 H       1  ZINC000546115054    0.0900
     40 H40       -10.8897   -2.0403   54.7488 H       1  ZINC000546115054    0.0800
     41 H41       -10.3817   -0.6276   52.2937 H       1  ZINC000546115054    0.3900
     42 H42        -8.3121    0.0599   51.4609 H       1  ZINC000546115054    0.4000
     43 H43        -5.8533    0.2633   50.9423 H       1  ZINC000546115054    0.0900
     44 H44        -6.7209    1.6532   50.2469 H       1  ZINC000546115054    0.1100
     45 H45        -5.8665    3.9521   50.6294 H       1  ZINC000546115054    0.1200
     46 H46        -3.8345    5.3268   50.8414 H       1  ZINC000546115054    0.1200
     47 H47        -1.7179    4.2928   51.5581 H       1  ZINC000546115054    0.1200
     48 H48        -1.6333    1.8844   52.0637 H       1  ZINC000546115054    0.1200
     49 H49        -3.6663    0.5106   51.8561 H       1  ZINC000546115054    0.1200
     50 H50        -4.6842    3.1009   53.8619 H       1  ZINC000546115054    0.0600
     51 H51        -5.6215    3.4329   55.3384 H       1  ZINC000546115054    0.0700
     52 H52        -5.8537    1.9009   54.4625 H       1  ZINC000546115054    0.0800
     53 H53        -7.8522    5.0483   54.5135 H       1  ZINC000546115054    0.0600
     54 H54        -6.1872    5.5384   54.1190 H       1  ZINC000546115054    0.0800
     55 H55        -7.4107    5.4261   52.8312 H       1  ZINC000546115054    0.0700
@<TRIPOS>BOND
     1     1     2    1
     2     1    30    1
     3     1    31    1
     4     1    32    1
     5     2     3    1
     6     2    33    1
     7     2    34    1
     8     3     4    1
     9     4     5    1
    10     4    10    1
    11     4     6    1
    12     6     7    1
    13     6    35    1
    14     6    36    1
    15     7     8    1
    16     8     9    1
    17     8    37    1
    18     8    38    1
    19     9    10    1
    20     9    39    1
    21     9    40    1
    22    10    11    1
    23    10    12    1
    24    12    13   am
    25    12    41    1
    26    13    14    2
    27    13    15   am
    28    15    16    1
    29    15    42    1
    30    16    17    1
    31    16    18    1
    32    16    25    1
    33    18    19    1
    34    18    43    1
    35    18    44    1
    36    19    24   ar
    37    19    20   ar
    38    20    21   ar
    39    20    45    1
    40    21    22   ar
    41    21    46    1
    42    22    23   ar
    43    22    47    1
    44    23    24   ar
    45    23    48    1
    46    24    49    1
    47    25    26    2
    48    25    27   am
    49    27    28    1
    50    27    29    1
    51    28    50    1
    52    28    51    1
    53    28    52    1
    54    29    53    1
    55    29    54    1
    56    29    55    1
@<TRIPOS>SUBSTRUCTURE
     1 ZINC000546115054        1 TEMP              0 ****  ****    0 ROOT


##########                                Name:    ZINC000944933040
##########                DOCK_Rotatable_Bonds:                   4
##########                         Heavy_Atoms:                  26
##########                    Molecular_Weight:             354.449
##########                DOCK_Rotatable_Bonds:                   4
##########                       Formal_Charge:           0.0100002
##########                     HBond_Acceptors:                   5
##########                        HBond_Donors:                   0
##########                         Heavy_Atoms:                  26
##########                          Grid_Score:          -27.855923
##########                     Grid_vdw_energy:          -27.617821
##########                      Grid_es_energy:           -0.238102
##########           Internal_energy_repulsive:            8.089597

@<TRIPOS>MOLECULE
ZINC000944933040
 52 57 1 0 0
SMALL
USER_CHARGES


@<TRIPOS>ATOM
      1 O1        -14.9069    0.8614   52.8008 O.2     1  ZINC000944933040   -0.5200
      2 C2        -14.2663    0.1819   53.5798 C.2     1  ZINC000944933040    0.6400
      3 C3        -14.9214   -0.4492   54.6859 C.1     1  ZINC000944933040   -0.2200
      4 C4        -15.4585   -0.9666   55.5926 C.1     1  ZINC000944933040   -0.0400
      5 C5        -16.1319   -1.6152   56.7295 C.3     1  ZINC000944933040   -0.0700
      6 C6        -17.1882   -2.6760   56.4132 C.3     1  ZINC000944933040   -0.1600
      7 C7        -15.8296   -3.0941   56.9794 C.3     1  ZINC000944933040   -0.1600
      8 N8        -12.9408    0.0182   53.3992 N.am    1  ZINC000944933040   -0.6000
      9 C9        -12.1593   -0.8103   54.3267 C.3     1  ZINC000944933040    0.1100
     10 C10       -11.0047    0.0300   54.8854 C.3     1  ZINC000944933040   -0.1200
     11 C11       -10.2318    0.6520   53.7249 C.3     1  ZINC000944933040   -0.0900
     12 C12        -8.9245    1.3335   54.1518 C.3     1  ZINC000944933040    0.1200
     13 N13        -8.3286    0.7079   52.9543 N.am    1  ZINC000944933040   -0.6400
     14 C14        -7.2703    0.9907   52.1692 C.2     1  ZINC000944933040    0.5500
     15 O15        -7.0105    0.2791   51.2221 O.2     1  ZINC000944933040   -0.5300
     16 C16        -6.4097    2.1912   52.4680 C.3     1  ZINC000944933040   -0.1300
     17 H17        -6.4323    2.4254   53.5323 H       1  ZINC000944933040    0.1100
     18 C18        -6.8605    3.4129   51.6273 C.3     1  ZINC000944933040   -0.1300
     19 C19        -5.5996    3.7231   50.7660 C.3     1  ZINC000944933040    0.0900
     20 H20        -5.7850    4.2874   49.8521 H       1  ZINC000944933040    0.1300
     21 O21        -5.0425    2.3803   50.5811 O.3     1  ZINC000944933040   -0.3600
     22 C22        -4.9470    1.9557   51.9855 C.3     1  ZINC000944933040    0.1200
     23 H23        -4.5429    0.9569   52.1505 H       1  ZINC000944933040    0.1400
     24 C24        -4.1166    3.1223   52.5998 C.3     1  ZINC000944933040   -0.2000
     25 H25        -3.9971    3.1550   53.6827 H       1  ZINC000944933040    0.1200
     26 C26        -3.0946    3.8086   51.6911 C.3     1  ZINC000944933040   -0.1300
     27 C27        -4.5755    4.3634   51.7504 C.3     1  ZINC000944933040   -0.2000
     28 H28        -4.7767    5.3459   52.1775 H       1  ZINC000944933040    0.1300
     29 C29        -9.3564   -0.3523   52.9622 C.3     1  ZINC000944933040    0.1100
     30 C30       -11.1033    1.5155   52.8163 C.3     1  ZINC000944933040   -0.1100
     31 C31       -12.2583    0.6607   52.2682 C.3     1  ZINC000944933040    0.1100
     32 H32       -16.2995   -0.9816   57.6003 H       1  ZINC000944933040    0.1400
     33 H33       -18.0510   -2.7403   57.0762 H       1  ZINC000944933040    0.1100
     34 H34       -17.3843   -2.8935   55.3634 H       1  ZINC000944933040    0.1000
     35 H35       -15.1321   -3.5867   56.3020 H       1  ZINC000944933040    0.1000
     36 H36       -15.7988   -3.4335   58.0148 H       1  ZINC000944933040    0.1100
     37 H37       -12.7974   -1.1442   55.1448 H       1  ZINC000944933040    0.0900
     38 H38       -11.7591   -1.6744   53.7965 H       1  ZINC000944933040    0.0800
     39 H39       -11.4036    0.8197   55.5223 H       1  ZINC000944933040    0.0800
     40 H40       -10.3386   -0.6070   55.4671 H       1  ZINC000944933040    0.0900
     41 H41        -8.9612    2.4219   54.1071 H       1  ZINC000944933040    0.0800
     42 H42        -8.5195    0.9582   55.0916 H       1  ZINC000944933040    0.0900
     43 H43        -7.7075    3.1534   50.9922 H       1  ZINC000944933040    0.0800
     44 H44        -7.1045    4.2568   52.2725 H       1  ZINC000944933040    0.0900
     45 H45        -2.3255    4.4153   52.1694 H       1  ZINC000944933040    0.1000
     46 H46        -2.7791    3.2725   50.7960 H       1  ZINC000944933040    0.1000
     47 H47        -9.0798   -1.2286   53.5485 H       1  ZINC000944933040    0.0900
     48 H48        -9.7365   -0.6037   51.9721 H       1  ZINC000944933040    0.0800
     49 H49       -11.5055    2.3533   53.3860 H       1  ZINC000944933040    0.0800
     50 H50       -10.5045    1.8914   51.9869 H       1  ZINC000944933040    0.0800
     51 H51       -11.8627   -0.0988   51.5939 H       1  ZINC000944933040    0.0700
     52 H52       -12.9620    1.2977   51.7322 H       1  ZINC000944933040    0.1000
@<TRIPOS>BOND
     1     1     2    2
     2     2     3    1
     3     2     8   am
     4     3     4    3
     5     4     5    1
     6     5     7    1
     7     5     6    1
     8     5    32    1
     9     6     7    1
    10     6    33    1
    11     6    34    1
    12     7    35    1
    13     7    36    1
    14     8    31    1
    15     8     9    1
    16     9    10    1
    17     9    37    1
    18     9    38    1
    19    10    11    1
    20    10    39    1
    21    10    40    1
    22    11    29    1
    23    11    12    1
    24    11    30    1
    25    12    13    1
    26    12    41    1
    27    12    42    1
    28    13    14   am
    29    13    29    1
    30    14    15    2
    31    14    16    1
    32    16    17    1
    33    16    22    1
    34    16    18    1
    35    18    19    1
    36    18    43    1
    37    18    44    1
    38    19    20    1
    39    19    27    1
    40    19    21    1
    41    21    22    1
    42    22    23    1
    43    22    24    1
    44    24    25    1
    45    24    27    1
    46    24    26    1
    47    26    27    1
    48    26    45    1
    49    26    46    1
    50    27    28    1
    51    29    47    1
    52    29    48    1
    53    30    31    1
    54    30    49    1
    55    30    50    1
    56    31    51    1
    57    31    52    1
@<TRIPOS>SUBSTRUCTURE
     1 ZINC000944933040        1 TEMP              0 ****  ****    0 ROOT


##########                                Name:    ZINC000986832075
##########                DOCK_Rotatable_Bonds:                   7
##########                         Heavy_Atoms:                  25
##########                    Molecular_Weight:             347.433
##########                DOCK_Rotatable_Bonds:                   7
##########                       Formal_Charge:          -0.0200006
##########                     HBond_Acceptors:                   6
##########                        HBond_Donors:                   1
##########                         Heavy_Atoms:                  25
##########                          Grid_Score:          -27.855423
##########                     Grid_vdw_energy:          -27.910170
##########                      Grid_es_energy:            0.054746
##########           Internal_energy_repulsive:           48.490273

@<TRIPOS>MOLECULE
ZINC000986832075
 51 53 1 0 0
SMALL
USER_CHARGES


@<TRIPOS>ATOM
      1 C1         -5.7873    5.2557   51.9436 C.3     1  ZINC000986832075   -0.1700
      2 C2         -5.9345    3.8412   51.3791 C.3     1  ZINC000986832075    0.1500
      3 H3         -6.6462    3.8517   50.5537 H       1  ZINC000986832075    0.0900
      4 N4         -4.6339    3.3702   50.8967 N.am    1  ZINC000986832075   -0.7200
      5 C5         -3.5879    3.2956   51.7432 C.2     1  ZINC000986832075    0.5600
      6 O6         -3.7238    3.6177   52.9071 O.2     1  ZINC000986832075   -0.5100
      7 C7         -2.2735    2.8214   51.2553 C.ar    1  ZINC000986832075   -0.1300
      8 C8         -2.1300    2.3030   49.9643 C.ar    1  ZINC000986832075   -0.1100
      9 C9         -0.8853    1.8718   49.5498 C.ar    1  ZINC000986832075    0.0900
     10 N10         0.1590    1.9428   50.3512 N.ar    1  ZINC000986832075   -0.4400
     11 C11         0.0710    2.4234   51.5748 C.ar    1  ZINC000986832075    0.0700
     12 C12        -1.1368    2.8844   52.0716 C.ar    1  ZINC000986832075    0.1100
     13 F13        -1.2197    3.3759   53.3272 F       1  ZINC000986832075   -0.1000
     14 C14        -6.4411    2.9040   52.4773 C.3     1  ZINC000986832075   -0.1000
     15 C15        -7.8960    3.2450   52.8075 C.3     1  ZINC000986832075   -0.1300
     16 C16        -8.3889    2.3278   53.9312 C.3     1  ZINC000986832075    0.1100
     17 N17        -8.1725    0.9309   53.5305 N.am    1  ZINC000986832075   -0.6100
     18 C18        -9.1883    0.0454   53.5511 C.2     1  ZINC000986832075    0.5200
     19 O19        -8.9969   -1.1049   53.2180 O.2     1  ZINC000986832075   -0.5300
     20 C20       -10.5620    0.4846   53.9881 C.3     1  ZINC000986832075   -0.0800
     21 H21       -10.4709    1.2319   54.7763 H       1  ZINC000986832075    0.0900
     22 C22       -11.3392   -0.7225   54.5172 C.3     1  ZINC000986832075   -0.1400
     23 C23       -11.3075    1.0887   52.7963 C.3     1  ZINC000986832075   -0.1400
     24 C24       -12.7456    1.5577   53.0267 C.3     1  ZINC000986832075   -0.1800
     25 C25       -11.6255    2.5844   52.8465 C.3     1  ZINC000986832075   -0.1700
     26 C26        -6.8277    0.5178   53.1066 C.3     1  ZINC000986832075    0.1000
     27 C27        -6.3524    1.4553   51.9921 C.3     1  ZINC000986832075   -0.1300
     28 H28        -5.4265    5.9234   51.1612 H       1  ZINC000986832075    0.0600
     29 H29        -6.7551    5.6061   52.3026 H       1  ZINC000986832075    0.0700
     30 H30        -5.0757    5.2452   52.7691 H       1  ZINC000986832075    0.0600
     31 H31        -4.5256    3.1120   49.9679 H       1  ZINC000986832075    0.4000
     32 H32        -2.9803    2.2406   49.3013 H       1  ZINC000986832075    0.1500
     33 H33        -0.7658    1.4703   48.5544 H       1  ZINC000986832075    0.1700
     34 H34         0.9530    2.4623   52.1969 H       1  ZINC000986832075    0.1800
     35 H35        -5.8280    3.0261   53.3703 H       1  ZINC000986832075    0.0800
     36 H36        -7.9619    4.2839   53.1306 H       1  ZINC000986832075    0.0700
     37 H37        -8.5139    3.0992   51.9215 H       1  ZINC000986832075    0.0800
     38 H38        -7.8315    2.5365   54.8442 H       1  ZINC000986832075    0.0700
     39 H39        -9.4518    2.4983   54.1024 H       1  ZINC000986832075    0.0900
     40 H40       -11.3541   -1.5056   53.7591 H       1  ZINC000986832075    0.0600
     41 H41       -10.8562   -1.0989   55.4189 H       1  ZINC000986832075    0.0600
     42 H42       -12.3611   -0.4230   54.7503 H       1  ZINC000986832075    0.0700
     43 H43       -11.0681    0.6573   51.8244 H       1  ZINC000986832075    0.1100
     44 H44       -13.4525    1.4349   52.2062 H       1  ZINC000986832075    0.1000
     45 H45       -13.1606    1.4360   54.0272 H       1  ZINC000986832075    0.0900
     46 H46       -11.3037    3.1381   53.7285 H       1  ZINC000986832075    0.0900
     47 H47       -11.5957    3.1370   51.9074 H       1  ZINC000986832075    0.1000
     48 H48        -6.1430    0.5790   53.9524 H       1  ZINC000986832075    0.0700
     49 H49        -6.8606   -0.5060   52.7336 H       1  ZINC000986832075    0.0900
     50 H50        -6.9848    1.3264   51.1138 H       1  ZINC000986832075    0.0800
     51 H51        -5.3195    1.2204   51.7350 H       1  ZINC000986832075    0.0800
@<TRIPOS>BOND
     1     1     2    1
     2     1    28    1
     3     1    29    1
     4     1    30    1
     5     2     3    1
     6     2     4    1
     7     2    14    1
     8     4     5   am
     9     4    31    1
    10     5     6    2
    11     5     7    1
    12     7    12   ar
    13     7     8   ar
    14     8     9   ar
    15     8    32    1
    16     9    10   ar
    17     9    33    1
    18    10    11   ar
    19    11    12   ar
    20    11    34    1
    21    12    13    1
    22    14    27    1
    23    14    15    1
    24    14    35    1
    25    15    16    1
    26    15    36    1
    27    15    37    1
    28    16    17    1
    29    16    38    1
    30    16    39    1
    31    17    18   am
    32    17    26    1
    33    18    19    2
    34    18    20    1
    35    20    21    1
    36    20    22    1
    37    20    23    1
    38    22    40    1
    39    22    41    1
    40    22    42    1
    41    23    25    1
    42    23    24    1
    43    23    43    1
    44    24    25    1
    45    24    44    1
    46    24    45    1
    47    25    46    1
    48    25    47    1
    49    26    27    1
    50    26    48    1
    51    26    49    1
    52    27    50    1
    53    27    51    1
@<TRIPOS>SUBSTRUCTURE
     1 ZINC000986832075        1 TEMP              0 ****  ****    0 ROOT


##########                                Name:    ZINC000441887161
##########                DOCK_Rotatable_Bonds:                   6
##########                         Heavy_Atoms:                  27
##########                    Molecular_Weight:             383.514
##########                DOCK_Rotatable_Bonds:                   6
##########                       Formal_Charge:          -0.0300002
##########                     HBond_Acceptors:                   6
##########                        HBond_Donors:                   1
##########                         Heavy_Atoms:                  27
##########                          Grid_Score:          -27.845518
##########                     Grid_vdw_energy:          -26.413038
##########                      Grid_es_energy:           -1.432481
##########           Internal_energy_repulsive:           17.379040

@<TRIPOS>MOLECULE
ZINC000441887161
 52 54 1 0 0
SMALL
USER_CHARGES


@<TRIPOS>ATOM
      1 C1        -14.0338    1.8373   47.4957 C.3     1  ZINC000441887161   -0.1200
      2 C2        -13.4513    1.7636   48.8837 C.ar    1  ZINC000441887161   -0.0700
      3 C3        -13.5773    0.6041   49.6253 C.ar    1  ZINC000441887161   -0.1200
      4 C4        -13.0428    0.5365   50.8986 C.ar    1  ZINC000441887161   -0.0900
      5 C5        -12.3823    1.6282   51.4297 C.ar    1  ZINC000441887161   -0.1100
      6 C6        -11.8002    1.5546   52.8178 C.3     1  ZINC000441887161    0.1900
      7 H7        -10.8350    2.0610   52.8344 H       1  ZINC000441887161    0.1000
      8 C8        -12.7500    2.2348   53.8057 C.3     1  ZINC000441887161    0.1000
      9 N9        -13.6992    1.2488   54.3284 N.pl3   1  ZINC000441887161   -0.4600
     10 C10       -14.7451    0.6876   53.6466 C.2     1  ZINC000441887161   -0.0500
     11 C11       -15.3538   -0.1611   54.4969 C.2     1  ZINC000441887161   -0.0200
     12 N12       -14.6975   -0.1191   55.6658 N.2     1  ZINC000441887161   -0.4900
     13 C13       -13.7021    0.7195   55.5707 C.2     1  ZINC000441887161    0.1800
     14 N14       -11.6220    0.1513   53.1988 N.am    1  ZINC000441887161   -1.1100
     15 S15       -10.3613   -0.2869   54.1791 S.o2    1  ZINC000441887161    2.6900
     16 O16       -10.4441    0.5388   55.3326 O.2     1  ZINC000441887161   -0.9600
     17 O17       -10.3728   -1.7067   54.2370 O.2     1  ZINC000441887161   -0.9500
     18 C18        -8.8741    0.1652   53.3494 C.ar    1  ZINC000441887161   -0.6800
     19 C19        -8.3559   -0.6540   52.3641 C.ar    1  ZINC000441887161   -0.0300
     20 C20        -7.1889   -0.2994   51.7132 C.ar    1  ZINC000441887161   -0.1300
     21 C21        -6.5406    0.8747   52.0473 C.ar    1  ZINC000441887161   -0.0200
     22 C22        -5.2683    1.2611   51.3381 C.3     1  ZINC000441887161   -0.1300
     23 C23        -7.0597    1.6948   53.0320 C.ar    1  ZINC000441887161   -0.1000
     24 C24        -6.3531    2.9752   53.3960 C.3     1  ZINC000441887161   -0.1200
     25 C25        -8.2283    1.3422   53.6800 C.ar    1  ZINC000441887161   -0.0100
     26 C26       -12.2550    2.7876   50.6873 C.ar    1  ZINC000441887161   -0.0700
     27 C27       -11.5344    3.9777   51.2662 C.3     1  ZINC000441887161   -0.1300
     28 C28       -12.7860    2.8539   49.4130 C.ar    1  ZINC000441887161   -0.1200
     29 H29       -13.2902    1.5048   46.7714 H       1  ZINC000441887161    0.0700
     30 H30       -14.9122    1.1947   47.4358 H       1  ZINC000441887161    0.0700
     31 H31       -14.3203    2.8658   47.2761 H       1  ZINC000441887161    0.0700
     32 H32       -14.0934   -0.2490   49.2103 H       1  ZINC000441887161    0.1200
     33 H33       -13.1419   -0.3694   51.4783 H       1  ZINC000441887161    0.1200
     34 H34       -12.1753    2.6580   54.6296 H       1  ZINC000441887161    0.1100
     35 H35       -13.2952    3.0298   53.2970 H       1  ZINC000441887161    0.1000
     36 H36       -15.0281    0.8872   52.6236 H       1  ZINC000441887161    0.1700
     37 H37       -16.2188   -0.7688   54.2761 H       1  ZINC000441887161    0.1600
     38 H38       -13.0009    0.9560   56.3573 H       1  ZINC000441887161    0.2000
     39 H39       -12.2426   -0.5211   52.8770 H       1  ZINC000441887161    0.4200
     40 H40        -8.8624   -1.5714   52.1030 H       1  ZINC000441887161    0.1300
     41 H41        -6.7836   -0.9399   50.9438 H       1  ZINC000441887161    0.1300
     42 H42        -5.5095    1.8584   50.4588 H       1  ZINC000441887161    0.0800
     43 H43        -4.6394    1.8434   52.0116 H       1  ZINC000441887161    0.0800
     44 H44        -4.7358    0.3610   51.0310 H       1  ZINC000441887161    0.0700
     45 H45        -6.7307    3.7878   52.7752 H       1  ZINC000441887161    0.0800
     46 H46        -6.5354    3.2051   54.4456 H       1  ZINC000441887161    0.0700
     47 H47        -5.2820    2.8589   53.2302 H       1  ZINC000441887161    0.0700
     48 H48        -8.6337    1.9829   54.4492 H       1  ZINC000441887161    0.1400
     49 H49       -10.4751    3.9180   51.0161 H       1  ZINC000441887161    0.0800
     50 H50       -11.9545    4.8940   50.8515 H       1  ZINC000441887161    0.0700
     51 H51       -11.6522    3.9820   52.3498 H       1  ZINC000441887161    0.0600
     52 H52       -12.6866    3.7596   48.8330 H       1  ZINC000441887161    0.1300
@<TRIPOS>BOND
     1     1     2    1
     2     1    29    1
     3     1    30    1
     4     1    31    1
     5     2    28   ar
     6     2     3   ar
     7     3     4   ar
     8     3    32    1
     9     4     5   ar
    10     4    33    1
    11     5     6    1
    12     5    26   ar
    13     6     7    1
    14     6     8    1
    15     6    14    1
    16     8     9    1
    17     8    34    1
    18     8    35    1
    19     9    13    1
    20     9    10    1
    21    10    11    2
    22    10    36    1
    23    11    12    1
    24    11    37    1
    25    12    13    2
    26    13    38    1
    27    14    15   am
    28    14    39    1
    29    15    16    2
    30    15    17    2
    31    15    18    1
    32    18    25   ar
    33    18    19   ar
    34    19    20   ar
    35    19    40    1
    36    20    21   ar
    37    20    41    1
    38    21    22    1
    39    21    23   ar
    40    22    42    1
    41    22    43    1
    42    22    44    1
    43    23    24    1
    44    23    25   ar
    45    24    45    1
    46    24    46    1
    47    24    47    1
    48    25    48    1
    49    26    27    1
    50    26    28   ar
    51    27    49    1
    52    27    50    1
    53    27    51    1
    54    28    52    1
@<TRIPOS>SUBSTRUCTURE
     1 ZINC000441887161        1 TEMP              0 ****  ****    0 ROOT


##########                                Name:    ZINC000437443367
##########                DOCK_Rotatable_Bonds:                   8
##########                         Heavy_Atoms:                  24
##########                    Molecular_Weight:             334.434
##########                DOCK_Rotatable_Bonds:                   8
##########                       Formal_Charge:          -0.0500003
##########                     HBond_Acceptors:                   5
##########                        HBond_Donors:                   1
##########                         Heavy_Atoms:                  24
##########                          Grid_Score:          -27.842695
##########                     Grid_vdw_energy:          -25.884499
##########                      Grid_es_energy:           -1.958197
##########           Internal_energy_repulsive:           47.396900

@<TRIPOS>MOLECULE
ZINC000437443367
 51 52 1 0 0
SMALL
USER_CHARGES


@<TRIPOS>ATOM
      1 C1        -10.3016    2.9506   54.1629 C.3     1  ZINC000437443367   -0.1200
      2 C2         -9.4382    1.8572   53.5885 C.ar    1  ZINC000437443367   -0.1000
      3 C3         -8.0710    2.0299   53.5049 C.ar    1  ZINC000437443367   -0.1200
      4 C4         -7.2755    1.0215   52.9751 C.ar    1  ZINC000437443367    0.1400
      5 N5         -5.8907    1.1940   52.8899 N.am    1  ZINC000437443367   -0.6400
      6 C6         -5.3407    1.6814   51.7601 C.2     1  ZINC000437443367    0.5000
      7 O7         -6.0474    1.9707   50.8167 O.2     1  ZINC000437443367   -0.4800
      8 C8         -3.8614    1.8656   51.6691 C.2     1  ZINC000437443367    0.5100
      9 O9         -3.2155    1.2086   50.8792 O.2     1  ZINC000437443367   -0.5200
     10 N10        -3.2437    2.7616   52.4643 N.am    1  ZINC000437443367   -0.5700
     11 C11        -1.7927    2.9425   52.3751 C.3     1  ZINC000437443367    0.0900
     12 C12        -1.4691    3.9195   51.2429 C.3     1  ZINC000437443367   -0.1200
     13 C13         0.0463    4.1084   51.1498 C.3     1  ZINC000437443367   -0.0900
     14 C14         0.5727    4.6683   52.4727 C.3     1  ZINC000437443367   -0.1400
     15 C15         0.7116    2.7602   50.8657 C.3     1  ZINC000437443367   -0.1500
     16 C16        -4.0236    3.5547   53.4177 C.3     1  ZINC000437443367    0.1300
     17 C17        -3.1397    3.9598   54.6155 C.3     1  ZINC000437443367   -0.1300
     18 C18        -2.6405    5.3812   54.2556 C.3     1  ZINC000437443367   -0.1300
     19 C19        -3.8785    6.0160   53.5748 C.3     1  ZINC000437443367   -0.1200
     20 C20        -4.4932    4.8621   52.7560 C.3     1  ZINC000437443367   -0.1400
     21 C21        -7.8581   -0.1586   52.5309 C.ar    1  ZINC000437443367   -0.1100
     22 C22        -9.2262   -0.3270   52.6165 C.ar    1  ZINC000437443367   -0.1300
     23 C23       -10.0164    0.6772   53.1500 C.ar    1  ZINC000437443367    0.0800
     24 F24       -11.3545    0.5104   53.2329 F       1  ZINC000437443367   -0.1400
     25 H25       -10.3970    2.8104   55.2397 H       1  ZINC000437443367    0.0800
     26 H26        -9.8432    3.9188   53.9619 H       1  ZINC000437443367    0.0700
     27 H27       -11.2890    2.9135   53.7029 H       1  ZINC000437443367    0.0700
     28 H28        -7.6202    2.9484   53.8506 H       1  ZINC000437443367    0.1400
     29 H29        -5.3259    0.9629   53.6438 H       1  ZINC000437443367    0.4200
     30 H30        -1.4177    3.3414   53.3175 H       1  ZINC000437443367    0.0900
     31 H31        -1.3186    1.9820   52.1727 H       1  ZINC000437443367    0.1000
     32 H32        -1.8442    3.5206   50.3005 H       1  ZINC000437443367    0.0700
     33 H33        -1.9432    4.8799   51.4454 H       1  ZINC000437443367    0.0600
     34 H34         0.2767    4.8044   50.3432 H       1  ZINC000437443367    0.0600
     35 H35         0.3422    3.9722   53.2791 H       1  ZINC000437443367    0.0600
     36 H36         1.6523    4.8028   52.4063 H       1  ZINC000437443367    0.0400
     37 H37         0.0987    5.6288   52.6750 H       1  ZINC000437443367    0.0600
     38 H38         0.3366    2.3613   49.9232 H       1  ZINC000437443367    0.0500
     39 H39         1.7913    2.8947   50.7993 H       1  ZINC000437443367    0.0500
     40 H40         0.4812    2.0642   51.6722 H       1  ZINC000437443367    0.0500
     41 H41        -4.8835    2.9816   53.7644 H       1  ZINC000437443367    0.1000
     42 H42        -3.7277    3.9829   55.5329 H       1  ZINC000437443367    0.0800
     43 H43        -2.2983    3.2745   54.7177 H       1  ZINC000437443367    0.0700
     44 H44        -2.3682    5.9341   55.1546 H       1  ZINC000437443367    0.0700
     45 H45        -1.8011    5.3317   53.5621 H       1  ZINC000437443367    0.0700
     46 H46        -4.5859    6.3711   54.3242 H       1  ZINC000437443367    0.0700
     47 H47        -3.5762    6.8313   52.9175 H       1  ZINC000437443367    0.0700
     48 H48        -4.1411    4.9065   51.7255 H       1  ZINC000437443367    0.0800
     49 H49        -5.5812    4.9239   52.7823 H       1  ZINC000437443367    0.0700
     50 H50        -7.2417   -0.9436   52.1185 H       1  ZINC000437443367    0.1600
     51 H51        -9.6797   -1.2444   52.2712 H       1  ZINC000437443367    0.1400
@<TRIPOS>BOND
     1     1     2    1
     2     1    25    1
     3     1    26    1
     4     1    27    1
     5     2    23   ar
     6     2     3   ar
     7     3     4   ar
     8     3    28    1
     9     4     5    1
    10     4    21   ar
    11     5     6   am
    12     5    29    1
    13     6     7    2
    14     6     8    1
    15     8     9    2
    16     8    10   am
    17    10    11    1
    18    10    16    1
    19    11    12    1
    20    11    30    1
    21    11    31    1
    22    12    13    1
    23    12    32    1
    24    12    33    1
    25    13    14    1
    26    13    15    1
    27    13    34    1
    28    14    35    1
    29    14    36    1
    30    14    37    1
    31    15    38    1
    32    15    39    1
    33    15    40    1
    34    16    20    1
    35    16    17    1
    36    16    41    1
    37    17    18    1
    38    17    42    1
    39    17    43    1
    40    18    19    1
    41    18    44    1
    42    18    45    1
    43    19    20    1
    44    19    46    1
    45    19    47    1
    46    20    48    1
    47    20    49    1
    48    21    22   ar
    49    21    50    1
    50    22    23   ar
    51    22    51    1
    52    23    24    1
@<TRIPOS>SUBSTRUCTURE
     1 ZINC000437443367        1 TEMP              0 ****  ****    0 ROOT


##########                                Name:    ZINC000474368324
##########                DOCK_Rotatable_Bonds:                   9
##########                         Heavy_Atoms:                  27
##########                    Molecular_Weight:             417.332
##########                DOCK_Rotatable_Bonds:                   9
##########                       Formal_Charge:        -1.63913e-07
##########                     HBond_Acceptors:                   8
##########                        HBond_Donors:                   1
##########                         Heavy_Atoms:                  27
##########                          Grid_Score:          -27.814070
##########                     Grid_vdw_energy:          -27.217369
##########                      Grid_es_energy:           -0.596701
##########           Internal_energy_repulsive:           24.285465

@<TRIPOS>MOLECULE
ZINC000474368324
 53 54 1 0 0
SMALL
USER_CHARGES


@<TRIPOS>ATOM
      1 C1         -8.4151    0.1103   64.5211 C.3     1  ZINC000474368324   -0.1500
      2 C2         -8.2747    0.4061   63.0266 C.3     1  ZINC000474368324    0.0600
      3 O3         -9.5465    0.8732   62.5040 O.3     1  ZINC000474368324   -0.3300
      4 C4         -9.7074    0.8393   61.1719 C.2     1  ZINC000474368324    0.4700
      5 O5        -10.3088   -0.0746   60.6591 O.2     1  ZINC000474368324   -0.5100
      6 C6         -9.1380    1.9411   60.3158 C.3     1  ZINC000474368324   -0.0400
      7 C7         -9.0934    3.2411   61.1214 C.3     1  ZINC000474368324    0.0600
      8 O8        -10.4118    3.5758   61.5592 O.3     1  ZINC000474368324   -0.3700
      9 C9        -10.4479    4.3233   62.7765 C.3     1  ZINC000474368324    0.0300
     10 C10        -7.7210    1.5649   59.8766 C.3     1  ZINC000474368324   -0.1200
     11 C11        -7.1326    2.7021   59.0356 C.3     1  ZINC000474368324    0.1100
     12 N12        -8.0507    2.9938   57.9262 N.am    1  ZINC000474368324   -0.6300
     13 C13        -7.6095    2.9985   56.6528 C.2     1  ZINC000474368324    0.7100
     14 O14        -6.4416    2.7598   56.4131 O.2     1  ZINC000474368324   -0.5800
     15 N15        -8.4629    3.2677   55.6449 N.am    1  ZINC000474368324   -0.7400
     16 C16        -7.9834    3.2728   54.2607 C.3     1  ZINC000474368324    0.2000
     17 H17        -6.9127    3.4761   54.2478 H       1  ZINC000474368324    0.1100
     18 C18        -8.7180    4.3576   53.4705 C.3     1  ZINC000474368324   -0.1600
     19 C19        -8.2470    1.9284   53.6328 C.ar    1  ZINC000474368324   -0.0700
     20 C20        -9.4435    1.2782   53.8688 C.ar    1  ZINC000474368324   -0.1000
     21 C21        -9.6864    0.0450   53.2927 C.ar    1  ZINC000474368324   -0.0900
     22 C22        -8.7330   -0.5388   52.4802 C.ar    1  ZINC000474368324   -0.1000
     23 C23        -7.5348    0.1106   52.2428 C.ar    1  ZINC000474368324   -0.0300
     24 Cl24       -6.3369   -0.6223   51.2222 Cl      1  ZINC000474368324   -0.0400
     25 C25        -7.2937    1.3479   52.8154 C.ar    1  ZINC000474368324   -0.0300
     26 Cl26       -5.7909    2.1645   52.5181 Cl      1  ZINC000474368324   -0.0400
     27 C27        -9.4593    3.2798   58.2315 C.3     1  ZINC000474368324    0.1300
     28 C28       -10.0216    2.1361   59.0816 C.3     1  ZINC000474368324   -0.1200
     29 H29        -7.4605   -0.2404   64.9133 H       1  ZINC000474368324    0.0800
     30 H30        -8.7115    1.0189   65.0451 H       1  ZINC000474368324    0.0700
     31 H31        -9.1734   -0.6585   64.6697 H       1  ZINC000474368324    0.0700
     32 H32        -7.5165    1.1749   62.8780 H       1  ZINC000474368324    0.0700
     33 H33        -7.9784   -0.5025   62.5026 H       1  ZINC000474368324    0.0700
     34 H34        -8.4453    3.1096   61.9878 H       1  ZINC000474368324    0.0700
     35 H35        -8.7041    4.0436   60.4948 H       1  ZINC000474368324    0.0600
     36 H36        -9.9819    3.7432   63.5731 H       1  ZINC000474368324    0.0400
     37 H37        -9.9057    5.2596   62.6441 H       1  ZINC000474368324    0.0400
     38 H38       -11.4833    4.5375   63.0409 H       1  ZINC000474368324    0.0900
     39 H39        -7.0983    1.4034   60.7565 H       1  ZINC000474368324    0.1000
     40 H40        -7.7548    0.6523   59.2817 H       1  ZINC000474368324    0.0800
     41 H41        -7.0140    3.5912   59.6550 H       1  ZINC000474368324    0.0800
     42 H42        -6.1639    2.3992   58.6381 H       1  ZINC000474368324    0.0800
     43 H43        -9.3947    3.4580   55.8362 H       1  ZINC000474368324    0.3900
     44 H44        -9.7889    4.1543   53.4834 H       1  ZINC000474368324    0.0600
     45 H45        -8.5274    5.3300   53.9247 H       1  ZINC000474368324    0.0700
     46 H46        -8.3613    4.3614   52.4405 H       1  ZINC000474368324    0.0700
     47 H47       -10.1890    1.7335   54.5039 H       1  ZINC000474368324    0.1300
     48 H48       -10.6216   -0.4625   53.4781 H       1  ZINC000474368324    0.1400
     49 H49        -8.9232   -1.5024   52.0307 H       1  ZINC000474368324    0.1500
     50 H50        -9.5303    4.2159   58.7854 H       1  ZINC000474368324    0.0700
     51 H51       -10.0257    3.3579   57.3035 H       1  ZINC000474368324    0.1100
     52 H52       -10.0337    1.2181   58.4941 H       1  ZINC000474368324    0.0900
     53 H53       -11.0362    2.3810   59.3955 H       1  ZINC000474368324    0.0900
@<TRIPOS>BOND
     1     1     2    1
     2     1    29    1
     3     1    30    1
     4     1    31    1
     5     2     3    1
     6     2    32    1
     7     2    33    1
     8     3     4    1
     9     4     5    2
    10     4     6    1
    11     6    28    1
    12     6     7    1
    13     6    10    1
    14     7     8    1
    15     7    34    1
    16     7    35    1
    17     8     9    1
    18     9    36    1
    19     9    37    1
    20     9    38    1
    21    10    11    1
    22    10    39    1
    23    10    40    1
    24    11    12    1
    25    11    41    1
    26    11    42    1
    27    12    13   am
    28    12    27    1
    29    13    14    2
    30    13    15   am
    31    15    16    1
    32    15    43    1
    33    16    17    1
    34    16    18    1
    35    16    19    1
    36    18    44    1
    37    18    45    1
    38    18    46    1
    39    19    25   ar
    40    19    20   ar
    41    20    21   ar
    42    20    47    1
    43    21    22   ar
    44    21    48    1
    45    22    23   ar
    46    22    49    1
    47    23    24    1
    48    23    25   ar
    49    25    26    1
    50    27    28    1
    51    27    50    1
    52    27    51    1
    53    28    52    1
    54    28    53    1
@<TRIPOS>SUBSTRUCTURE
     1 ZINC000474368324        1 TEMP              0 ****  ****    0 ROOT


##########                                Name:    ZINC000599228306
##########                DOCK_Rotatable_Bonds:                   8
##########                         Heavy_Atoms:                  25
##########                    Molecular_Weight:             379.382
##########                DOCK_Rotatable_Bonds:                   8
##########                       Formal_Charge:        -4.09782e-08
##########                     HBond_Acceptors:                  10
##########                        HBond_Donors:                   1
##########                         Heavy_Atoms:                  25
##########                          Grid_Score:          -27.803217
##########                     Grid_vdw_energy:          -26.097374
##########                      Grid_es_energy:           -1.705842
##########           Internal_energy_repulsive:           35.277412

@<TRIPOS>MOLECULE
ZINC000599228306
 44 44 1 0 0
SMALL
USER_CHARGES


@<TRIPOS>ATOM
      1 C1         -0.9341    2.3199   51.0411 C.3     1  ZINC000599228306    0.0400
      2 O2         -2.1586    2.0389   51.7690 O.3     1  ZINC000599228306   -0.3500
      3 C3         -3.2882    1.9224   51.0440 C.2     1  ZINC000599228306    0.5100
      4 O4         -3.2538    2.0676   49.8383 O.2     1  ZINC000599228306   -0.4800
      5 C5         -4.5672    1.6185   51.7144 C.ar    1  ZINC000599228306   -0.1500
      6 C6         -5.1470    0.3548   51.5801 C.ar    1  ZINC000599228306   -0.0100
      7 C7         -6.3440    0.0775   52.2102 C.ar    1  ZINC000599228306    0.0700
      8 F8         -6.9060   -1.1443   52.0813 F       1  ZINC000599228306   -0.1200
      9 C9         -6.9704    1.0492   52.9751 C.ar    1  ZINC000599228306    0.0100
     10 C10        -6.4028    2.3023   53.1128 C.ar    1  ZINC000599228306   -0.7100
     11 S11        -7.2078    3.5293   54.0881 S.o2    1  ZINC000599228306    2.7000
     12 O12        -7.3799    4.6613   53.2466 O.2     1  ZINC000599228306   -0.9200
     13 O13        -8.2866    2.8769   54.7436 O.2     1  ZINC000599228306   -0.9300
     14 N14        -6.1469    3.9858   55.2749 N.am    1  ZINC000599228306   -1.1000
     15 C15        -5.6468    2.9951   56.2312 C.3     1  ZINC000599228306    0.1600
     16 H16        -5.5990    2.0180   55.7503 H       1  ZINC000599228306    0.1300
     17 C17        -4.2488    3.4009   56.7019 C.3     1  ZINC000599228306   -0.1700
     18 C18        -6.5758    2.9269   57.4159 C.2     1  ZINC000599228306    0.4700
     19 O19        -6.5367    1.9761   58.1603 O.2     1  ZINC000599228306   -0.4900
     20 O20        -7.4466    3.9225   57.6440 O.3     1  ZINC000599228306   -0.3400
     21 C21        -8.4101    3.7238   58.7120 C.3     1  ZINC000599228306    0.1200
     22 C22        -9.3522    4.9274   58.7793 C.3     1  ZINC000599228306   -0.1900
     23 C23        -9.2212    2.4559   58.4379 C.3     1  ZINC000599228306   -0.1400
     24 C24        -7.6719    3.5789   60.0443 C.3     1  ZINC000599228306   -0.1800
     25 C25        -5.2021    2.5927   52.4922 C.ar    1  ZINC000599228306    0.2500
     26 F26        -4.6484    3.8176   52.6280 F       1  ZINC000599228306   -0.0900
     27 H27        -0.1024    2.3887   51.7421 H       1  ZINC000599228306    0.1100
     28 H28        -0.7431    1.5178   50.3281 H       1  ZINC000599228306    0.0700
     29 H29        -1.0378    3.2642   50.5064 H       1  ZINC000599228306    0.0700
     30 H30        -4.6604   -0.4034   50.9845 H       1  ZINC000599228306    0.1700
     31 H31        -7.9064    0.8265   53.4656 H       1  ZINC000599228306    0.1800
     32 H32        -5.8564    4.9093   55.3368 H       1  ZINC000599228306    0.4300
     33 H33        -3.8768    2.6636   57.4135 H       1  ZINC000599228306    0.0900
     34 H34        -3.5769    3.4500   55.8450 H       1  ZINC000599228306    0.0700
     35 H35        -4.2967    4.3779   57.1827 H       1  ZINC000599228306    0.0800
     36 H36        -9.8782    5.0308   57.8302 H       1  ZINC000599228306    0.0600
     37 H37       -10.0754    4.7784   59.5811 H       1  ZINC000599228306    0.0700
     38 H38        -8.7744    5.8308   58.9747 H       1  ZINC000599228306    0.0800
     39 H39        -8.5500    1.5984   58.3899 H       1  ZINC000599228306    0.0700
     40 H40        -9.9445    2.3068   59.2396 H       1  ZINC000599228306    0.0800
     41 H41        -9.7472    2.5592   57.4887 H       1  ZINC000599228306    0.0700
     42 H42        -7.0940    4.4822   60.2396 H       1  ZINC000599228306    0.0800
     43 H43        -8.3951    3.4298   60.8461 H       1  ZINC000599228306    0.0700
     44 H44        -7.0006    2.7215   59.9964 H       1  ZINC000599228306    0.0600
@<TRIPOS>BOND
     1     1     2    1
     2     1    27    1
     3     1    28    1
     4     1    29    1
     5     2     3    1
     6     3     4    2
     7     3     5    1
     8     5    25   ar
     9     5     6   ar
    10     6     7   ar
    11     6    30    1
    12     7     8    1
    13     7     9   ar
    14     9    10   ar
    15     9    31    1
    16    10    11    1
    17    10    25   ar
    18    11    12    2
    19    11    13    2
    20    11    14   am
    21    14    15    1
    22    14    32    1
    23    15    16    1
    24    15    17    1
    25    15    18    1
    26    17    33    1
    27    17    34    1
    28    17    35    1
    29    18    19    2
    30    18    20    1
    31    20    21    1
    32    21    22    1
    33    21    23    1
    34    21    24    1
    35    22    36    1
    36    22    37    1
    37    22    38    1
    38    23    39    1
    39    23    40    1
    40    23    41    1
    41    24    42    1
    42    24    43    1
    43    24    44    1
    44    25    26    1
@<TRIPOS>SUBSTRUCTURE
     1 ZINC000599228306        1 TEMP              0 ****  ****    0 ROOT


##########                                Name:    ZINC000001174632
##########                DOCK_Rotatable_Bonds:                   6
##########                         Heavy_Atoms:                  29
##########                    Molecular_Weight:             385.419
##########                DOCK_Rotatable_Bonds:                   6
##########                       Formal_Charge:           0.0400005
##########                     HBond_Acceptors:                   5
##########                        HBond_Donors:                   1
##########                         Heavy_Atoms:                  29
##########                          Grid_Score:          -27.777491
##########                     Grid_vdw_energy:          -26.268993
##########                      Grid_es_energy:           -1.508497
##########           Internal_energy_repulsive:           22.016781

@<TRIPOS>MOLECULE
ZINC000001174632
 48 51 1 0 0
SMALL
USER_CHARGES


@<TRIPOS>ATOM
      1 C1         -5.8528   -0.5835   51.5235 C.3     1  ZINC000001174632    0.0400
      2 O2         -6.5626    0.5934   51.9914 O.3     1  ZINC000001174632   -0.3500
      3 C3         -6.6284    1.6435   51.1491 C.2     1  ZINC000001174632    0.5200
      4 O4         -6.1322    1.5666   50.0425 O.2     1  ZINC000001174632   -0.5200
      5 C5         -7.3019    2.8846   51.5701 C.ar    1  ZINC000001174632   -0.2000
      6 C6         -7.5127    3.9162   50.6521 C.ar    1  ZINC000001174632   -0.0200
      7 C7         -8.1438    5.0744   51.0523 C.ar    1  ZINC000001174632   -0.1800
      8 C8         -8.5714    5.2224   52.3619 C.ar    1  ZINC000001174632   -0.0300
      9 C9         -8.3704    4.2128   53.2813 C.ar    1  ZINC000001174632   -0.1900
     10 C10        -7.7414    3.0355   52.8958 C.ar    1  ZINC000001174632    0.2600
     11 N11        -7.5383    2.0179   53.8187 N.pl3   1  ZINC000001174632   -0.6500
     12 C12        -8.2335    2.0153   55.0005 C.2     1  ZINC000001174632    0.2300
     13 C13        -9.5215    1.5447   55.1703 C.2     1  ZINC000001174632   -0.1800
     14 C14       -10.3774    0.9620   54.1132 C.ar    1  ZINC000001174632   -0.0600
     15 C15       -11.6676    1.4530   53.9078 C.ar    1  ZINC000001174632   -0.0600
     16 C16       -12.4622    0.9071   52.9215 C.ar    1  ZINC000001174632   -0.1500
     17 C17       -11.9806   -0.1295   52.1340 C.ar    1  ZINC000001174632    0.1400
     18 O18       -12.7671   -0.6648   51.1629 O.3     1  ZINC000001174632   -0.3200
     19 C19       -14.0427   -0.0560   50.9522 C.3     1  ZINC000001174632    0.0300
     20 C20       -10.6979   -0.6207   52.3350 C.ar    1  ZINC000001174632   -0.2100
     21 C21        -9.8947   -0.0763   53.3150 C.ar    1  ZINC000001174632   -0.0500
     22 C22        -9.8954    1.7210   56.5793 C.2     1  ZINC000001174632    0.4500
     23 O23       -10.9563    1.4181   57.0892 O.2     1  ZINC000001174632   -0.4100
     24 C24        -8.7281    2.3409   57.2651 C.ar    1  ZINC000001174632   -0.1600
     25 C25        -8.5063    2.7302   58.5726 C.ar    1  ZINC000001174632   -0.0500
     26 C26        -7.2863    3.2958   58.9302 C.ar    1  ZINC000001174632   -0.1100
     27 C27        -6.2986    3.4697   57.9851 C.ar    1  ZINC000001174632   -0.0900
     28 C28        -6.5106    3.0819   56.6674 C.ar    1  ZINC000001174632   -0.0800
     29 C29        -7.7202    2.5110   56.2997 C.ar    1  ZINC000001174632   -0.0600
     30 H30        -4.8184   -0.3201   51.3026 H       1  ZINC000001174632    0.0700
     31 H31        -5.8748   -1.3522   52.2959 H       1  ZINC000001174632    0.1100
     32 H32        -6.3321   -0.9619   50.6206 H       1  ZINC000001174632    0.0700
     33 H33        -7.1812    3.8066   49.6302 H       1  ZINC000001174632    0.1400
     34 H34        -8.3055    5.8711   50.3412 H       1  ZINC000001174632    0.1300
     35 H35        -9.0649    6.1338   52.6654 H       1  ZINC000001174632    0.1300
     36 H36        -8.7060    4.3363   54.3004 H       1  ZINC000001174632    0.1300
     37 H37        -6.9046    1.3090   53.6273 H       1  ZINC000001174632    0.4300
     38 H38       -12.0433    2.2591   54.5206 H       1  ZINC000001174632    0.1300
     39 H39       -13.4607    1.2865   52.7620 H       1  ZINC000001174632    0.1300
     40 H40       -14.6290   -0.1143   51.8692 H       1  ZINC000001174632    0.0600
     41 H41       -13.9050    0.9891   50.6747 H       1  ZINC000001174632    0.0600
     42 H42       -14.5669   -0.5784   50.1520 H       1  ZINC000001174632    0.1000
     43 H43       -10.3270   -1.4276   51.7204 H       1  ZINC000001174632    0.1300
     44 H44        -8.8967   -0.4587   53.4706 H       1  ZINC000001174632    0.1300
     45 H45        -9.2786    2.5959   59.3155 H       1  ZINC000001174632    0.1400
     46 H46        -7.1129    3.6000   59.9519 H       1  ZINC000001174632    0.1400
     47 H47        -5.3545    3.9101   58.2699 H       1  ZINC000001174632    0.1400
     48 H48        -5.7327    3.2208   55.9313 H       1  ZINC000001174632    0.1300
@<TRIPOS>BOND
     1     1     2    1
     2     1    30    1
     3     1    31    1
     4     1    32    1
     5     2     3    1
     6     3     4    2
     7     3     5    1
     8     5    10   ar
     9     5     6   ar
    10     6     7   ar
    11     6    33    1
    12     7     8   ar
    13     7    34    1
    14     8     9   ar
    15     8    35    1
    16     9    10   ar
    17     9    36    1
    18    10    11    1
    19    11    12    1
    20    11    37    1
    21    12    29    1
    22    12    13    2
    23    13    14    1
    24    13    22    1
    25    14    21   ar
    26    14    15   ar
    27    15    16   ar
    28    15    38    1
    29    16    17   ar
    30    16    39    1
    31    17    18    1
    32    17    20   ar
    33    18    19    1
    34    19    40    1
    35    19    41    1
    36    19    42    1
    37    20    21   ar
    38    20    43    1
    39    21    44    1
    40    22    23    2
    41    22    24    1
    42    24    29   ar
    43    24    25   ar
    44    25    26   ar
    45    25    45    1
    46    26    27   ar
    47    26    46    1
    48    27    28   ar
    49    27    47    1
    50    28    29   ar
    51    28    48    1
@<TRIPOS>SUBSTRUCTURE
     1 ZINC000001174632        1 TEMP              0 ****  ****    0 ROOT


##########                                Name:    ZINC000345028113
##########                DOCK_Rotatable_Bonds:                   5
##########                         Heavy_Atoms:                  21
##########                    Molecular_Weight:             331.838
##########                DOCK_Rotatable_Bonds:                   5
##########                       Formal_Charge:         4.47035e-07
##########                     HBond_Acceptors:                   6
##########                        HBond_Donors:                   0
##########                         Heavy_Atoms:                  21
##########                          Grid_Score:          -27.773716
##########                     Grid_vdw_energy:          -27.433645
##########                      Grid_es_energy:           -0.340072
##########           Internal_energy_repulsive:           13.179407

@<TRIPOS>MOLECULE
ZINC000345028113
 40 41 1 0 0
SMALL
USER_CHARGES


@<TRIPOS>ATOM
      1 C1         -9.4428    1.7719   55.0050 C.3     1  ZINC000345028113   -0.1700
      2 C2         -9.3174    1.7349   53.4805 C.3     1  ZINC000345028113    0.1400
      3 H3         -8.5178    2.4052   53.1655 H       1  ZINC000345028113    0.1100
      4 C4        -10.6392    2.1839   52.8484 C.3     1  ZINC000345028113   -0.0700
      5 H5        -10.5399    2.1947   51.7630 H       1  ZINC000345028113    0.0900
      6 C6        -10.9946    3.5868   53.3449 C.3     1  ZINC000345028113   -0.1400
      7 S7        -11.9451    1.0150   53.3291 S.3     1  ZINC000345028113   -0.2400
      8 C8        -11.2499   -0.5800   52.8039 C.3     1  ZINC000345028113   -0.1100
      9 C9         -9.8664   -0.7492   53.4406 C.3     1  ZINC000345028113    0.1000
     10 N10        -9.0086    0.3705   53.0494 N.am    1  ZINC000345028113   -0.6100
     11 C11        -7.9228    0.1429   52.2841 C.2     1  ZINC000345028113    0.5200
     12 O12        -7.6601   -0.9851   51.9245 O.2     1  ZINC000345028113   -0.5300
     13 C13        -7.0352    1.2901   51.8752 C.3     1  ZINC000345028113   -0.1400
     14 C14        -6.0699    0.8241   50.7835 C.3     1  ZINC000345028113    0.0700
     15 O15        -5.5090    1.9622   50.1260 O.3     1  ZINC000345028113   -0.3000
     16 C16        -4.5759    2.6740   50.8126 C.ar    1  ZINC000345028113    0.1300
     17 C17        -3.3684    2.0856   51.1557 C.ar    1  ZINC000345028113   -0.1700
     18 C18        -2.4205    2.8103   51.8531 C.ar    1  ZINC000345028113   -0.1100
     19 C19        -2.6758    4.1233   52.2094 C.ar    1  ZINC000345028113    0.0800
     20 F20        -1.7479    4.8302   52.8908 F       1  ZINC000345028113   -0.1300
     21 C21        -3.8813    4.7131   51.8678 C.ar    1  ZINC000345028113   -0.1100
     22 C22        -4.8292    3.9926   51.1657 C.ar    1  ZINC000345028113   -0.0400
     23 Cl23       -6.3403    4.7318   50.7372 Cl      1  ZINC000345028113   -0.0400
     24 H24        -8.5026    1.4526   55.4547 H       1  ZINC000345028113    0.0600
     25 H25        -9.6726    2.7878   55.3260 H       1  ZINC000345028113    0.0800
     26 H26       -10.2424    1.1016   55.3202 H       1  ZINC000345028113    0.0800
     27 H27       -10.2039    4.2826   53.0643 H       1  ZINC000345028113    0.0800
     28 H28       -11.9349    3.9043   52.8941 H       1  ZINC000345028113    0.0700
     29 H29       -11.0981    3.5728   54.4299 H       1  ZINC000345028113    0.0700
     30 H30       -11.9037   -1.3888   53.1304 H       1  ZINC000345028113    0.1200
     31 H31       -11.1571   -0.5983   51.7180 H       1  ZINC000345028113    0.0900
     32 H32        -9.9658   -0.7688   54.5258 H       1  ZINC000345028113    0.0900
     33 H33        -9.4214   -1.6840   53.0996 H       1  ZINC000345028113    0.1000
     34 H34        -7.6489    2.1061   51.4934 H       1  ZINC000345028113    0.1100
     35 H35        -6.4674    1.6360   52.7390 H       1  ZINC000345028113    0.1100
     36 H36        -5.2712    0.2337   51.2326 H       1  ZINC000345028113    0.0800
     37 H37        -6.6087    0.2144   50.0581 H       1  ZINC000345028113    0.0800
     38 H38        -3.1686    1.0611   50.8784 H       1  ZINC000345028113    0.1500
     39 H39        -1.4800    2.3517   52.1207 H       1  ZINC000345028113    0.1500
     40 H40        -4.0793    5.7375   52.1466 H       1  ZINC000345028113    0.1500
@<TRIPOS>BOND
     1     1     2    1
     2     1    24    1
     3     1    25    1
     4     1    26    1
     5     2     3    1
     6     2    10    1
     7     2     4    1
     8     4     5    1
     9     4     6    1
    10     4     7    1
    11     6    27    1
    12     6    28    1
    13     6    29    1
    14     7     8    1
    15     8     9    1
    16     8    30    1
    17     8    31    1
    18     9    10    1
    19     9    32    1
    20     9    33    1
    21    10    11   am
    22    11    12    2
    23    11    13    1
    24    13    14    1
    25    13    34    1
    26    13    35    1
    27    14    15    1
    28    14    36    1
    29    14    37    1
    30    15    16    1
    31    16    22   ar
    32    16    17   ar
    33    17    18   ar
    34    17    38    1
    35    18    19   ar
    36    18    39    1
    37    19    20    1
    38    19    21   ar
    39    21    22   ar
    40    21    40    1
    41    22    23    1
@<TRIPOS>SUBSTRUCTURE
     1 ZINC000345028113        1 TEMP              0 ****  ****    0 ROOT


##########                                Name:    ZINC000430767928
##########                DOCK_Rotatable_Bonds:                   4
##########                         Heavy_Atoms:                  25
##########                    Molecular_Weight:             358.505
##########                DOCK_Rotatable_Bonds:                   4
##########                       Formal_Charge:          -0.0100002
##########                     HBond_Acceptors:                   5
##########                        HBond_Donors:                   0
##########                         Heavy_Atoms:                  25
##########                          Grid_Score:          -27.766525
##########                     Grid_vdw_energy:          -27.170725
##########                      Grid_es_energy:           -0.595800
##########           Internal_energy_repulsive:           15.658836

@<TRIPOS>MOLECULE
ZINC000430767928
 51 55 1 0 0
SMALL
USER_CHARGES


@<TRIPOS>ATOM
      1 O1        -11.1717    2.5229   54.7057 O.2     1  ZINC000430767928   -0.4600
      2 C2        -10.7168    1.6012   54.0628 C.2     1  ZINC000430767928    0.5300
      3 C3         -9.3233    1.0264   54.1450 C.3     1  ZINC000430767928    0.0400
      4 H4         -9.1506    0.4661   55.0639 H       1  ZINC000430767928    0.1400
      5 C5         -8.2497    2.1047   53.8910 C.3     1  ZINC000430767928   -0.1100
      6 C6         -7.1155    1.2913   53.2165 C.3     1  ZINC000430767928   -0.1000
      7 H7         -6.3662    1.0023   53.9535 H       1  ZINC000430767928    0.1000
      8 C8         -6.4700    2.1074   52.0948 C.3     1  ZINC000430767928   -0.0800
      9 C9         -5.9512    3.4309   52.6604 C.3     1  ZINC000430767928   -0.1100
     10 C10        -5.3058    4.2469   51.5385 C.3     1  ZINC000430767928   -0.1200
     11 C11        -4.1408    3.4571   50.9388 C.3     1  ZINC000430767928   -0.1200
     12 C12        -4.6596    2.1335   50.3731 C.3     1  ZINC000430767928   -0.1200
     13 C13        -5.3050    1.3175   51.4950 C.3     1  ZINC000430767928   -0.1200
     14 C14        -7.8132    0.0399   52.6406 C.3     1  ZINC000430767928    0.1600
     15 N15        -9.2520    0.1811   52.9202 N.am    1  ZINC000430767928   -0.6400
     16 C16       -10.5212   -0.0442   52.5660 C.2     1  ZINC000430767928    0.7400
     17 O17       -10.8754   -0.9398   51.8246 O.2     1  ZINC000430767928   -0.5100
     18 N18       -11.3508    0.8650   53.1232 N.am    1  ZINC000430767928   -0.5800
     19 C19       -12.7574    1.0374   52.7515 C.3     1  ZINC000430767928    0.2600
     20 H20       -13.1700    1.8971   53.2796 H       1  ZINC000430767928    0.1200
     21 C21       -12.8600    1.2641   51.2653 C.2     1  ZINC000430767928   -0.2100
     22 C22       -13.2510    0.3524   50.3736 C.2     1  ZINC000430767928   -0.1200
     23 C23       -13.2676    0.7904   49.0605 C.2     1  ZINC000430767928   -0.1400
     24 C24       -12.8898    2.0577   48.8860 C.2     1  ZINC000430767928   -0.2300
     25 S25       -12.4897    2.7736   50.4419 S.3     1  ZINC000430767928    0.1700
     26 C26       -13.5429   -0.2195   53.1312 C.3     1  ZINC000430767928   -0.1700
     27 C27       -14.5691   -0.0973   54.2595 C.3     1  ZINC000430767928   -0.1700
     28 C28       -15.0388   -0.2414   52.8105 C.3     1  ZINC000430767928   -0.1600
     29 H29        -8.6262    2.8756   53.2188 H       1  ZINC000430767928    0.0800
     30 H30        -7.9084    2.5405   54.8300 H       1  ZINC000430767928    0.1000
     31 H31        -7.2098    2.3084   51.3198 H       1  ZINC000430767928    0.0700
     32 H32        -6.7813    3.9936   53.0877 H       1  ZINC000430767928    0.0600
     33 H33        -5.2115    3.2298   53.4352 H       1  ZINC000430767928    0.0700
     34 H34        -6.0456    4.4480   50.7637 H       1  ZINC000430767928    0.0600
     35 H35        -4.9363    5.1898   51.9416 H       1  ZINC000430767928    0.0600
     36 H36        -3.6810    4.0384   50.1396 H       1  ZINC000430767928    0.0600
     37 H37        -3.4011    3.2559   51.7136 H       1  ZINC000430767928    0.0600
     38 H38        -5.3993    2.3345   49.5982 H       1  ZINC000430767928    0.0600
     39 H39        -3.8296    1.5708   49.9458 H       1  ZINC000430767928    0.0600
     40 H40        -4.5653    1.1164   52.2698 H       1  ZINC000430767928    0.0700
     41 H41        -5.6746    0.3746   51.0919 H       1  ZINC000430767928    0.0600
     42 H42        -7.6404   -0.0224   51.5662 H       1  ZINC000430767928    0.0900
     43 H43        -7.4365   -0.8569   53.1324 H       1  ZINC000430767928    0.0800
     44 H44       -13.5332   -0.6515   50.6547 H       1  ZINC000430767928    0.1400
     45 H45       -13.5634    0.1541   48.2396 H       1  ZINC000430767928    0.1400
     46 H46       -12.8407    2.5674   47.9351 H       1  ZINC000430767928    0.1600
     47 H47       -12.9963   -1.1588   53.0471 H       1  ZINC000430767928    0.1200
     48 H48       -14.6977   -0.9562   54.9180 H       1  ZINC000430767928    0.1000
     49 H49       -14.6845    0.8785   54.7312 H       1  ZINC000430767928    0.1000
     50 H50       -15.4632    0.6396   52.3290 H       1  ZINC000430767928    0.1000
     51 H51       -15.4764   -1.1953   52.5158 H       1  ZINC000430767928    0.1000
@<TRIPOS>BOND
     1     1     2    2
     2     2    18   am
     3     2     3    1
     4     3     4    1
     5     3    15    1
     6     3     5    1
     7     5     6    1
     8     5    29    1
     9     5    30    1
    10     6     7    1
    11     6     8    1
    12     6    14    1
    13     8    13    1
    14     8     9    1
    15     8    31    1
    16     9    10    1
    17     9    32    1
    18     9    33    1
    19    10    11    1
    20    10    34    1
    21    10    35    1
    22    11    12    1
    23    11    36    1
    24    11    37    1
    25    12    13    1
    26    12    38    1
    27    12    39    1
    28    13    40    1
    29    13    41    1
    30    14    15    1
    31    14    42    1
    32    14    43    1
    33    15    16   am
    34    16    17    2
    35    16    18   am
    36    18    19    1
    37    19    20    1
    38    19    21    1
    39    19    26    1
    40    21    25    1
    41    21    22    2
    42    22    23    1
    43    22    44    1
    44    23    24    2
    45    23    45    1
    46    24    25    1
    47    24    46    1
    48    26    28    1
    49    26    27    1
    50    26    47    1
    51    27    28    1
    52    27    48    1
    53    27    49    1
    54    28    50    1
    55    28    51    1
@<TRIPOS>SUBSTRUCTURE
     1 ZINC000430767928        1 TEMP              0 ****  ****    0 ROOT


##########                                Name:    ZINC001110536231
##########                DOCK_Rotatable_Bonds:                   8
##########                         Heavy_Atoms:                  24
##########                    Molecular_Weight:             329.442
##########                DOCK_Rotatable_Bonds:                   8
##########                       Formal_Charge:          -0.0400001
##########                     HBond_Acceptors:                   5
##########                        HBond_Donors:                   1
##########                         Heavy_Atoms:                  24
##########                          Grid_Score:          -27.741379
##########                     Grid_vdw_energy:          -27.996403
##########                      Grid_es_energy:            0.255025
##########           Internal_energy_repulsive:           30.493757

@<TRIPOS>MOLECULE
ZINC001110536231
 51 53 1 0 0
SMALL
USER_CHARGES


@<TRIPOS>ATOM
      1 C1        -14.6251   -0.8984   49.0741 C.3     1  ZINC001110536231   -0.1300
      2 C2        -13.2258   -0.3120   49.2711 C.3     1  ZINC001110536231   -0.1000
      3 C3        -13.2929    1.1906   49.1763 C.2     1  ZINC001110536231   -0.0200
      4 C4        -13.3175    1.8600   47.8262 C.3     1  ZINC001110536231   -0.1300
      5 C5        -13.3306    1.9259   50.2838 C.2     1  ZINC001110536231   -0.2400
      6 C6        -13.3067    1.2724   51.6015 C.2     1  ZINC001110536231    0.5400
      7 O7        -14.1091    0.3960   51.8603 O.2     1  ZINC001110536231   -0.5300
      8 N8        -12.3954    1.6450   52.5220 N.am    1  ZINC001110536231   -0.7300
      9 C9        -12.3705    0.9930   53.8337 C.3     1  ZINC001110536231    0.1100
     10 H10       -13.3836    0.7774   54.1730 H       1  ZINC001110536231    0.1000
     11 C11       -11.6257    1.8741   54.8663 C.3     1  ZINC001110536231   -0.1600
     12 C12       -10.4210    0.9862   55.3013 C.3     1  ZINC001110536231    0.0500
     13 H13        -9.5776    1.5192   55.7402 H       1  ZINC001110536231    0.1200
     14 C14       -11.0439   -0.1343   56.1877 C.3     1  ZINC001110536231   -0.1200
     15 C15       -11.7996   -1.0230   55.1697 C.3     1  ZINC001110536231   -0.1100
     16 C16       -11.5198   -0.3118   53.7816 C.3     1  ZINC001110536231    0.0400
     17 H17       -11.6451   -0.9380   52.8983 H       1  ZINC001110536231    0.1200
     18 N18       -10.1351    0.2419   54.0230 N.3     1  ZINC001110536231   -0.4900
     19 C19        -9.7377    1.1550   52.9430 C.3     1  ZINC001110536231    0.0600
     20 C20        -8.2797    0.9490   52.6222 C.ar    1  ZINC001110536231    0.0100
     21 C21        -7.7847   -0.3190   52.3516 C.ar    1  ZINC001110536231   -0.2100
     22 C22        -6.4436   -0.4729   52.0609 C.ar    1  ZINC001110536231    0.1400
     23 N23        -5.6329    0.5678   52.0380 N.ar    1  ZINC001110536231   -0.5400
     24 C24        -6.0671    1.7915   52.2904 C.ar    1  ZINC001110536231    0.3200
     25 O25        -5.1984    2.8332   52.2556 O.3     1  ZINC001110536231   -0.3100
     26 C26        -3.8976    2.5756   51.7232 C.3     1  ZINC001110536231    0.0400
     27 C27        -7.4047    2.0210   52.5852 C.ar    1  ZINC001110536231   -0.1700
     28 H28       -14.5766   -1.9852   49.1428 H       1  ZINC001110536231    0.0500
     29 H29       -15.2918   -0.5150   49.8465 H       1  ZINC001110536231    0.0700
     30 H30       -15.0040   -0.6129   48.0928 H       1  ZINC001110536231    0.0400
     31 H31       -12.8470   -0.5975   50.2525 H       1  ZINC001110536231    0.0900
     32 H32       -12.5591   -0.6954   48.4987 H       1  ZINC001110536231    0.0600
     33 H33       -14.3501    1.9752   47.4965 H       1  ZINC001110536231    0.0800
     34 H34       -12.8475    2.8408   47.8984 H       1  ZINC001110536231    0.0700
     35 H35       -12.7727    1.2481   47.1073 H       1  ZINC001110536231    0.0700
     36 H36       -13.3788    3.0026   50.2157 H       1  ZINC001110536231    0.1200
     37 H37       -11.7562    2.3449   52.3160 H       1  ZINC001110536231    0.4000
     38 H38       -11.2750    2.7959   54.4023 H       1  ZINC001110536231    0.0700
     39 H39       -12.2687    2.0928   55.7189 H       1  ZINC001110536231    0.0800
     40 H40       -10.2628   -0.7051   56.6898 H       1  ZINC001110536231    0.0700
     41 H41       -11.7364    0.2915   56.9138 H       1  ZINC001110536231    0.0700
     42 H42       -11.3932   -2.0343   55.1673 H       1  ZINC001110536231    0.0800
     43 H43       -12.8668   -1.0378   55.3913 H       1  ZINC001110536231    0.0700
     44 H44       -10.3373    0.9513   52.0558 H       1  ZINC001110536231    0.0900
     45 H45        -9.8976    2.1853   53.2609 H       1  ZINC001110536231    0.0700
     46 H46        -8.4414   -1.1763   52.3685 H       1  ZINC001110536231    0.1300
     47 H47        -6.0534   -1.4575   51.8498 H       1  ZINC001110536231    0.1600
     48 H48        -3.3051    3.4900   51.7533 H       1  ZINC001110536231    0.1000
     49 H49        -3.4074    1.8052   52.3184 H       1  ZINC001110536231    0.0600
     50 H50        -3.9881    2.2351   50.6917 H       1  ZINC001110536231    0.0600
     51 H51        -7.7560    3.0214   52.7904 H       1  ZINC001110536231    0.1400
@<TRIPOS>BOND
     1     1     2    1
     2     1    28    1
     3     1    29    1
     4     1    30    1
     5     2     3    1
     6     2    31    1
     7     2    32    1
     8     3     4    1
     9     3     5    2
    10     4    33    1
    11     4    34    1
    12     4    35    1
    13     5     6    1
    14     5    36    1
    15     6     7    2
    16     6     8   am
    17     8     9    1
    18     8    37    1
    19     9    10    1
    20     9    16    1
    21     9    11    1
    22    11    12    1
    23    11    38    1
    24    11    39    1
    25    12    13    1
    26    12    18    1
    27    12    14    1
    28    14    15    1
    29    14    40    1
    30    14    41    1
    31    15    16    1
    32    15    42    1
    33    15    43    1
    34    16    17    1
    35    16    18    1
    36    18    19    1
    37    19    20    1
    38    19    44    1
    39    19    45    1
    40    20    27   ar
    41    20    21   ar
    42    21    22   ar
    43    21    46    1
    44    22    23   ar
    45    22    47    1
    46    23    24   ar
    47    24    25    1
    48    24    27   ar
    49    25    26    1
    50    26    48    1
    51    26    49    1
    52    26    50    1
    53    27    51    1
@<TRIPOS>SUBSTRUCTURE
     1 ZINC001110536231        1 TEMP              0 ****  ****    0 ROOT


##########                                Name:    ZINC001400108193
##########                DOCK_Rotatable_Bonds:                   9
##########                         Heavy_Atoms:                  25
##########                    Molecular_Weight:              344.41
##########                DOCK_Rotatable_Bonds:                   9
##########                       Formal_Charge:           0.0200001
##########                     HBond_Acceptors:                   6
##########                        HBond_Donors:                   2
##########                         Heavy_Atoms:                  25
##########                          Grid_Score:          -27.731226
##########                     Grid_vdw_energy:          -27.162077
##########                      Grid_es_energy:           -0.569148
##########           Internal_energy_repulsive:            7.039053

@<TRIPOS>MOLECULE
ZINC001400108193
 49 50 1 0 0
SMALL
USER_CHARGES


@<TRIPOS>ATOM
      1 C1          5.9547    4.0090   43.1579 C.3     1  ZINC001400108193   -0.0800
      2 C2          5.2917    3.5398   44.4273 C.2     1  ZINC001400108193   -0.0100
      3 C3          4.3403    4.2051   45.1000 C.2     1  ZINC001400108193   -0.1600
      4 C4          4.0037    3.3664   46.2597 C.2     1  ZINC001400108193   -0.2300
      5 C5          3.0109    3.6551   47.3098 C.2     1  ZINC001400108193    0.5900
      6 O6          2.3647    4.6846   47.2692 O.2     1  ZINC001400108193   -0.5300
      7 N7          2.8189    2.7782   48.3152 N.am    1  ZINC001400108193   -0.7300
      8 C8          1.8331    3.0661   49.3600 C.3     1  ZINC001400108193    0.1100
      9 C9          1.2909    1.7519   49.9256 C.3     1  ZINC001400108193    0.1300
     10 H10         0.9983    1.0967   49.1052 H       1  ZINC001400108193    0.1000
     11 C11         2.3762    1.0698   50.7609 C.3     1  ZINC001400108193   -0.1600
     12 N12         0.1258    2.0275   50.7699 N.am    1  ZINC001400108193   -0.7300
     13 C13        -1.1140    1.9803   50.2436 C.2     1  ZINC001400108193    0.5200
     14 O14        -1.2653    1.7082   49.0715 O.2     1  ZINC001400108193   -0.5100
     15 C15        -2.3125    2.2655   51.1118 C.3     1  ZINC001400108193    0.0700
     16 H16        -2.4410    1.4566   51.8309 H       1  ZINC001400108193    0.1000
     17 C17        -2.0987    3.5832   51.8593 C.3     1  ZINC001400108193   -0.1800
     18 O18        -3.4800    2.3658   50.2940 O.3     1  ZINC001400108193   -0.2800
     19 C19        -4.6741    2.1069   50.8890 C.ar    1  ZINC001400108193    0.1200
     20 C20        -4.9342    0.8458   51.4054 C.ar    1  ZINC001400108193   -0.2100
     21 C21        -6.1486    0.5854   52.0101 C.ar    1  ZINC001400108193   -0.0800
     22 C22        -7.1064    1.5789   52.0965 C.ar    1  ZINC001400108193   -0.1200
     23 C23        -8.4327    1.2902   52.7513 C.3     1  ZINC001400108193   -0.1100
     24 C24        -6.8476    2.8381   51.5874 C.ar    1  ZINC001400108193   -0.0800
     25 C25        -5.6347    3.1036   50.9817 C.ar    1  ZINC001400108193   -0.1400
     26 C26         4.8068    2.2679   46.1637 C.2     1  ZINC001400108193    0.0200
     27 O27         5.5587    2.3896   45.0654 O.3     1  ZINC001400108193   -0.1700
     28 H28         6.8383    4.5973   43.4056 H       1  ZINC001400108193    0.0900
     29 H29         6.2486    3.1457   42.5609 H       1  ZINC001400108193    0.0800
     30 H30         5.2568    4.6234   42.5892 H       1  ZINC001400108193    0.0900
     31 H31         3.9095    5.1612   44.8420 H       1  ZINC001400108193    0.1600
     32 H32         3.3334    1.9565   48.3469 H       1  ZINC001400108193    0.4000
     33 H33         1.0127    3.6451   48.9360 H       1  ZINC001400108193    0.0800
     34 H34         2.3064    3.6375   50.1585 H       1  ZINC001400108193    0.0900
     35 H35         1.9899    0.1336   51.1638 H       1  ZINC001400108193    0.0700
     36 H36         3.2431    0.8649   50.1326 H       1  ZINC001400108193    0.0700
     37 H37         2.6689    1.7252   51.5813 H       1  ZINC001400108193    0.0600
     38 H38         0.2468    2.2439   51.7077 H       1  ZINC001400108193    0.4000
     39 H39        -1.2081    3.5069   52.4830 H       1  ZINC001400108193    0.0800
     40 H40        -1.9702    4.3922   51.1401 H       1  ZINC001400108193    0.0800
     41 H41        -2.9655    3.7896   52.4872 H       1  ZINC001400108193    0.0800
     42 H42        -4.1881    0.0683   51.3341 H       1  ZINC001400108193    0.1300
     43 H43        -6.3518   -0.3963   52.4119 H       1  ZINC001400108193    0.1300
     44 H44        -8.3680    1.5124   53.8164 H       1  ZINC001400108193    0.0700
     45 H45        -9.2049    1.9108   52.2969 H       1  ZINC001400108193    0.0700
     46 H46        -8.6843    0.2385   52.6141 H       1  ZINC001400108193    0.0700
     47 H47        -7.5957    3.6135   51.6597 H       1  ZINC001400108193    0.1300
     48 H48        -5.4345    4.0863   50.5809 H       1  ZINC001400108193    0.1300
     49 H49         4.8293    1.4393   46.8561 H       1  ZINC001400108193    0.2100
@<TRIPOS>BOND
     1     1     2    1
     2     1    28    1
     3     1    29    1
     4     1    30    1
     5     2    27    1
     6     2     3    2
     7     3     4    1
     8     3    31    1
     9     4     5    1
    10     4    26    2
    11     5     6    2
    12     5     7   am
    13     7     8    1
    14     7    32    1
    15     8     9    1
    16     8    33    1
    17     8    34    1
    18     9    10    1
    19     9    11    1
    20     9    12    1
    21    11    35    1
    22    11    36    1
    23    11    37    1
    24    12    13   am
    25    12    38    1
    26    13    14    2
    27    13    15    1
    28    15    16    1
    29    15    17    1
    30    15    18    1
    31    17    39    1
    32    17    40    1
    33    17    41    1
    34    18    19    1
    35    19    25   ar
    36    19    20   ar
    37    20    21   ar
    38    20    42    1
    39    21    22   ar
    40    21    43    1
    41    22    23    1
    42    22    24   ar
    43    23    44    1
    44    23    45    1
    45    23    46    1
    46    24    25   ar
    47    24    47    1
    48    25    48    1
    49    26    27    1
    50    26    49    1
@<TRIPOS>SUBSTRUCTURE
     1 ZINC001400108193        1 TEMP              0 ****  ****    0 ROOT


##########                                Name:    ZINC000800038938
##########                DOCK_Rotatable_Bonds:                   6
##########                         Heavy_Atoms:                  25
##########                    Molecular_Weight:             386.274
##########                DOCK_Rotatable_Bonds:                   6
##########                       Formal_Charge:           0.0200003
##########                     HBond_Acceptors:                   7
##########                        HBond_Donors:                   0
##########                         Heavy_Atoms:                  25
##########                          Grid_Score:          -27.697868
##########                     Grid_vdw_energy:          -28.371742
##########                      Grid_es_energy:            0.673873
##########           Internal_energy_repulsive:           12.850604

@<TRIPOS>MOLECULE
ZINC000800038938
 46 48 1 0 0
SMALL
USER_CHARGES


@<TRIPOS>ATOM
      1 C1        -11.3771   -0.2837   56.8734 C.3     1  ZINC000800038938    0.0300
      2 O2        -10.2282    0.3157   56.2711 O.3     1  ZINC000800038938   -0.3800
      3 C3        -10.3930    0.6253   54.8857 C.3     1  ZINC000800038938    0.0900
      4 H4        -11.2031    1.3432   54.7578 H       1  ZINC000800038938    0.0700
      5 C5        -10.6956   -0.6607   54.0893 C.3     1  ZINC000800038938   -0.1400
      6 C6         -9.9444   -0.4632   52.7493 C.3     1  ZINC000800038938   -0.1400
      7 C7         -8.6372    0.2407   53.1908 C.3     1  ZINC000800038938    0.0900
      8 H8         -7.9218   -0.4876   53.5725 H       1  ZINC000800038938    0.0900
      9 O9         -8.0620    0.9846   52.0844 O.3     1  ZINC000800038938   -0.3500
     10 C10        -6.9691    1.7187   52.3464 C.2     1  ZINC000800038938    0.4500
     11 O11        -6.4503    1.6620   53.4361 O.2     1  ZINC000800038938   -0.4800
     12 C12        -6.3893    2.6135   51.2815 C.3     1  ZINC000800038938    0.1500
     13 H13        -6.4179    2.1075   50.3164 H       1  ZINC000800038938    0.1200
     14 C14        -7.1918    3.9297   51.2079 C.3     1  ZINC000800038938   -0.1200
     15 C15        -6.0910    4.9941   50.9570 C.3     1  ZINC000800038938   -0.1300
     16 C16        -4.9149    4.4277   51.7909 C.3     1  ZINC000800038938    0.0900
     17 N17        -5.0024    2.9625   51.6223 N.am    1  ZINC000800038938   -0.6000
     18 C18        -3.9817    2.0934   51.7612 C.2     1  ZINC000800038938    0.5800
     19 O19        -4.1700    0.9036   51.5983 O.2     1  ZINC000800038938   -0.4900
     20 C20        -2.6336    2.5870   52.1118 C.ar    1  ZINC000800038938   -0.1100
     21 C21        -2.3887    3.1165   53.3797 C.ar    1  ZINC000800038938   -0.0700
     22 C22        -1.1270    3.5758   53.7006 C.ar    1  ZINC000800038938   -0.0400
     23 Cl23       -0.8201    4.2343   55.2773 Cl      1  ZINC000800038938   -0.0500
     24 C24        -0.1054    3.5123   52.7677 C.ar    1  ZINC000800038938   -0.0700
     25 C25        -0.3411    2.9892   51.5094 C.ar    1  ZINC000800038938   -0.1000
     26 C26        -1.5970    2.5204   51.1772 C.ar    1  ZINC000800038938    0.0100
     27 Cl27       -1.8909    1.8642   49.5970 Cl      1  ZINC000800038938   -0.0300
     28 C28        -9.0846    1.1996   54.3147 C.3     1  ZINC000800038938   -0.1200
     29 H29       -11.1716   -0.4878   57.9242 H       1  ZINC000800038938    0.0900
     30 H30       -12.2252    0.3963   56.7944 H       1  ZINC000800038938    0.0400
     31 H31       -11.6107   -1.2169   56.3608 H       1  ZINC000800038938    0.0400
     32 H32       -10.3126   -1.5347   54.6162 H       1  ZINC000800038938    0.0800
     33 H33       -11.7672   -0.7583   53.9152 H       1  ZINC000800038938    0.0800
     34 H34        -9.7271   -1.4242   52.2830 H       1  ZINC000800038938    0.0800
     35 H35       -10.5174    0.1736   52.0754 H       1  ZINC000800038938    0.0800
     36 H36        -7.8995    3.9041   50.3793 H       1  ZINC000800038938    0.1000
     37 H37        -7.7058    4.1211   52.1498 H       1  ZINC000800038938    0.0900
     38 H38        -5.8312    5.0458   49.8997 H       1  ZINC000800038938    0.0900
     39 H39        -6.3997    5.9707   51.3300 H       1  ZINC000800038938    0.1000
     40 H40        -3.9644    4.7965   51.4054 H       1  ZINC000800038938    0.0900
     41 H41        -5.0296    4.6974   52.8408 H       1  ZINC000800038938    0.0800
     42 H42        -3.1844    3.1671   54.1081 H       1  ZINC000800038938    0.1500
     43 H43         0.8798    3.8730   53.0240 H       1  ZINC000800038938    0.1500
     44 H44         0.4600    2.9429   50.7864 H       1  ZINC000800038938    0.1500
     45 H45        -9.2590    2.1959   53.9082 H       1  ZINC000800038938    0.0900
     46 H46        -8.3239    1.2419   55.0942 H       1  ZINC000800038938    0.0900
@<TRIPOS>BOND
     1     1     2    1
     2     1    29    1
     3     1    30    1
     4     1    31    1
     5     2     3    1
     6     3     4    1
     7     3    28    1
     8     3     5    1
     9     5     6    1
    10     5    32    1
    11     5    33    1
    12     6     7    1
    13     6    34    1
    14     6    35    1
    15     7     8    1
    16     7     9    1
    17     7    28    1
    18     9    10    1
    19    10    11    2
    20    10    12    1
    21    12    13    1
    22    12    17    1
    23    12    14    1
    24    14    15    1
    25    14    36    1
    26    14    37    1
    27    15    16    1
    28    15    38    1
    29    15    39    1
    30    16    17    1
    31    16    40    1
    32    16    41    1
    33    17    18   am
    34    18    19    2
    35    18    20    1
    36    20    26   ar
    37    20    21   ar
    38    21    22   ar
    39    21    42    1
    40    22    23    1
    41    22    24   ar
    42    24    25   ar
    43    24    43    1
    44    25    26   ar
    45    25    44    1
    46    26    27    1
    47    28    45    1
    48    28    46    1
@<TRIPOS>SUBSTRUCTURE
     1 ZINC000800038938        1 TEMP              0 ****  ****    0 ROOT


##########                                Name:    ZINC000962855438
##########                DOCK_Rotatable_Bonds:                   7
##########                         Heavy_Atoms:                  27
##########                    Molecular_Weight:             370.448
##########                DOCK_Rotatable_Bonds:                   7
##########                       Formal_Charge:           0.0300005
##########                     HBond_Acceptors:                   6
##########                        HBond_Donors:                   2
##########                         Heavy_Atoms:                  27
##########                          Grid_Score:          -27.686840
##########                     Grid_vdw_energy:          -26.086987
##########                      Grid_es_energy:           -1.599853
##########           Internal_energy_repulsive:            9.159946

@<TRIPOS>MOLECULE
ZINC000962855438
 53 56 1 0 0
SMALL
USER_CHARGES


@<TRIPOS>ATOM
      1 C1        -17.4609   -0.2285   48.2700 C.3     1  ZINC000962855438   -0.1100
      2 C2        -16.4388   -1.3076   48.5192 C.2     1  ZINC000962855438   -0.1700
      3 C3        -15.0880   -0.9494   48.9781 C.2     1  ZINC000962855438    0.5600
      4 O4        -14.1766   -1.7470   48.8672 O.2     1  ZINC000962855438   -0.5400
      5 N5        -14.8602    0.2627   49.5216 N.am    1  ZINC000962855438   -0.7100
      6 C6        -13.5152    0.6189   49.9803 C.3     1  ZINC000962855438    0.1500
      7 H7        -12.7646    0.3290   49.2451 H       1  ZINC000962855438    0.1200
      8 C8        -13.2137   -0.0148   51.3613 C.3     1  ZINC000962855438    0.1000
      9 N9        -12.1875    0.8576   51.9607 N.am    1  ZINC000962855438   -0.6100
     10 C10       -11.3018    0.4919   52.9085 C.2     1  ZINC000962855438    0.5800
     11 O11       -11.3087   -0.6445   53.3409 O.2     1  ZINC000962855438   -0.5200
     12 C12       -10.3242    1.4705   53.4215 C.ar    1  ZINC000962855438   -0.1500
     13 C13       -10.7584    2.5664   54.1673 C.ar    1  ZINC000962855438   -0.0600
     14 C14        -9.8474    3.4828   54.6471 C.ar    1  ZINC000962855438   -0.1500
     15 C15        -8.4964    3.3183   54.3856 C.ar    1  ZINC000962855438   -0.0500
     16 C16        -8.0571    2.2416   53.6480 C.ar    1  ZINC000962855438   -0.1800
     17 C17        -8.9521    1.2968   53.1643 C.ar    1  ZINC000962855438    0.1600
     18 O18        -8.3100    0.3106   52.4853 O.3     1  ZINC000962855438   -0.2800
     19 C19        -7.0040    0.7727   52.1004 C.3     1  ZINC000962855438    0.0700
     20 H20        -7.0346    1.2421   51.1171 H       1  ZINC000962855438    0.0900
     21 C21        -5.9949   -0.3772   52.1187 C.3     1  ZINC000962855438   -0.1500
     22 C22        -6.6732    1.8119   53.1999 C.3     1  ZINC000962855438   -0.1100
     23 C23       -12.2896    2.1923   51.3527 C.3     1  ZINC000962855438    0.0700
     24 C24       -13.4209    2.1333   50.3040 C.3     1  ZINC000962855438    0.0900
     25 H25       -13.1522    2.7030   49.4144 H       1  ZINC000962855438    0.0900
     26 O26       -14.6484    2.6123   50.8572 O.3     1  ZINC000962855438   -0.5600
     27 C27       -16.7584   -2.5838   48.3243 C.2     1  ZINC000962855438   -0.0600
     28 C28       -17.9838   -3.3487   47.8707 C.3     1  ZINC000962855438   -0.1000
     29 C29       -17.4465   -4.5461   48.6702 C.3     1  ZINC000962855438   -0.1400
     30 C30       -16.0572   -3.9197   48.4507 C.3     1  ZINC000962855438   -0.1100
     31 H31       -17.3943    0.1024   47.2336 H       1  ZINC000962855438    0.0700
     32 H32       -18.4590   -0.6220   48.4625 H       1  ZINC000962855438    0.0700
     33 H33       -17.2684    0.6145   48.9336 H       1  ZINC000962855438    0.0700
     34 H34       -15.5869    0.8993   49.6090 H       1  ZINC000962855438    0.4100
     35 H35       -14.1118   -0.0237   51.9789 H       1  ZINC000962855438    0.0800
     36 H36       -12.8268   -1.0263   51.2382 H       1  ZINC000962855438    0.0900
     37 H37       -11.8112    2.6974   54.3690 H       1  ZINC000962855438    0.1400
     38 H38       -10.1865    4.3291   55.2263 H       1  ZINC000962855438    0.1400
     39 H39        -7.7846    4.0382   54.7617 H       1  ZINC000962855438    0.1300
     40 H40        -6.2999   -1.1398   51.4023 H       1  ZINC000962855438    0.0700
     41 H41        -5.0086    0.0007   51.8493 H       1  ZINC000962855438    0.0800
     42 H42        -5.9570   -0.8114   53.1178 H       1  ZINC000962855438    0.0700
     43 H43        -6.1226    2.6561   52.7851 H       1  ZINC000962855438    0.1000
     44 H44        -6.1190    1.3510   54.0175 H       1  ZINC000962855438    0.1000
     45 H45       -12.5306    2.9306   52.1175 H       1  ZINC000962855438    0.0800
     46 H46       -11.3486    2.4517   50.8676 H       1  ZINC000962855438    0.0800
     47 H47       -14.6348    3.5505   51.0910 H       1  ZINC000962855438    0.3900
     48 H48       -18.9181   -2.9469   48.2629 H       1  ZINC000962855438    0.0900
     49 H49       -18.0158   -3.5221   46.7951 H       1  ZINC000962855438    0.1000
     50 H50       -17.7680   -4.5601   49.7116 H       1  ZINC000962855438    0.0900
     51 H51       -17.5786   -5.5050   48.1691 H       1  ZINC000962855438    0.0800
     52 H52       -15.5707   -4.2496   47.5327 H       1  ZINC000962855438    0.1000
     53 H53       -15.4064   -3.9866   49.3225 H       1  ZINC000962855438    0.0800
@<TRIPOS>BOND
     1     1     2    1
     2     1    31    1
     3     1    32    1
     4     1    33    1
     5     2     3    1
     6     2    27    2
     7     3     4    2
     8     3     5   am
     9     5     6    1
    10     5    34    1
    11     6     7    1
    12     6    24    1
    13     6     8    1
    14     8     9    1
    15     8    35    1
    16     8    36    1
    17     9    10   am
    18     9    23    1
    19    10    11    2
    20    10    12    1
    21    12    17   ar
    22    12    13   ar
    23    13    14   ar
    24    13    37    1
    25    14    15   ar
    26    14    38    1
    27    15    16   ar
    28    15    39    1
    29    16    22    1
    30    16    17   ar
    31    17    18    1
    32    18    19    1
    33    19    20    1
    34    19    21    1
    35    19    22    1
    36    21    40    1
    37    21    41    1
    38    21    42    1
    39    22    43    1
    40    22    44    1
    41    23    24    1
    42    23    45    1
    43    23    46    1
    44    24    25    1
    45    24    26    1
    46    26    47    1
    47    27    30    1
    48    27    28    1
    49    28    29    1
    50    28    48    1
    51    28    49    1
    52    29    30    1
    53    29    50    1
    54    29    51    1
    55    30    52    1
    56    30    53    1
@<TRIPOS>SUBSTRUCTURE
     1 ZINC000962855438        1 TEMP              0 ****  ****    0 ROOT


##########                                Name:    ZINC000461336108
##########                DOCK_Rotatable_Bonds:                   5
##########                         Heavy_Atoms:                  26
##########                    Molecular_Weight:             373.522
##########                DOCK_Rotatable_Bonds:                   5
##########                       Formal_Charge:        -3.42727e-07
##########                     HBond_Acceptors:                   7
##########                        HBond_Donors:                   0
##########                         Heavy_Atoms:                  26
##########                          Grid_Score:          -27.630407
##########                     Grid_vdw_energy:          -28.258860
##########                      Grid_es_energy:            0.628452
##########           Internal_energy_repulsive:           10.591140

@<TRIPOS>MOLECULE
ZINC000461336108
 53 56 1 0 0
SMALL
USER_CHARGES


@<TRIPOS>ATOM
      1 C1         -5.7386    5.5641   52.4811 C.3     1  ZINC000461336108   -0.1300
      2 C2         -5.3556    4.6532   51.3130 C.3     1  ZINC000461336108    0.0700
      3 H3         -5.5493    5.1697   50.3729 H       1  ZINC000461336108    0.0800
      4 C4         -3.8948    4.3135   51.4037 C.2     1  ZINC000461336108    0.5300
      5 O5         -3.1104    5.1929   51.6902 O.2     1  ZINC000461336108   -0.5300
      6 N6         -3.4233    3.0819   51.1821 N.am    1  ZINC000461336108   -0.6100
      7 C7         -1.9771    2.8618   51.2592 C.3     1  ZINC000461336108    0.0700
      8 C8         -4.2859    1.9468   50.8670 C.3     1  ZINC000461336108    0.1200
      9 C9         -5.6543    2.4428   50.3961 C.3     1  ZINC000461336108    0.0400
     10 N10        -6.1590    3.4246   51.3690 N.3     1  ZINC000461336108   -0.4300
     11 C11        -7.4988    3.7002   51.1470 C.2     1  ZINC000461336108    0.3300
     12 N12        -8.0253    4.1725   50.0417 N.2     1  ZINC000461336108   -0.2500
     13 N13        -9.2953    4.3064   50.1854 N.2     1  ZINC000461336108   -0.2800
     14 C14        -9.6518    3.9306   51.3810 C.2     1  ZINC000461336108    0.2000
     15 C15       -11.0520    3.9346   51.9383 C.3     1  ZINC000461336108   -0.0300
     16 C16       -11.8854    2.8640   51.2313 C.3     1  ZINC000461336108   -0.0900
     17 C17       -13.2950    2.7674   51.8661 C.3     1  ZINC000461336108   -0.1200
     18 C18       -14.1429    2.1545   50.7239 C.3     1  ZINC000461336108   -0.1200
     19 C19       -13.5918    2.8186   49.4453 C.3     1  ZINC000461336108   -0.1300
     20 C20       -12.1565    3.2697   49.7679 C.3     1  ZINC000461336108   -0.1200
     21 N21        -8.5207    3.5263   52.0344 N.pl3   1  ZINC000461336108   -0.4900
     22 C22        -8.4247    3.0195   53.4056 C.3     1  ZINC000461336108    0.1700
     23 C23        -9.0485    1.6497   53.4797 C.2     1  ZINC000461336108   -0.2400
     24 C24        -8.7324    0.6174   52.6963 C.2     1  ZINC000461336108   -0.0900
     25 C25        -9.4397   -0.5452   52.9498 C.2     1  ZINC000461336108   -0.1400
     26 C26       -10.3300   -0.4570   53.9391 C.2     1  ZINC000461336108   -0.2000
     27 S27       -10.2992    1.1655   54.6175 S.3     1  ZINC000461336108    0.1200
     28 H28        -5.5454    5.0490   53.4221 H       1  ZINC000461336108    0.0800
     29 H29        -5.1459    6.4779   52.4387 H       1  ZINC000461336108    0.0800
     30 H30        -6.7974    5.8145   52.4146 H       1  ZINC000461336108    0.0700
     31 H31        -1.4791    3.8005   51.5017 H       1  ZINC000461336108    0.0900
     32 H32        -1.7624    2.1259   52.0342 H       1  ZINC000461336108    0.0700
     33 H33        -1.6137    2.4950   50.2992 H       1  ZINC000461336108    0.0600
     34 H34        -3.8261    1.3511   50.0783 H       1  ZINC000461336108    0.0900
     35 H35        -4.4114    1.3300   51.7569 H       1  ZINC000461336108    0.0900
     36 H36        -5.5558    2.9132   49.4177 H       1  ZINC000461336108    0.0500
     37 H37        -6.3456    1.6024   50.3321 H       1  ZINC000461336108    0.1100
     38 H38       -11.0184    3.7222   53.0068 H       1  ZINC000461336108    0.0800
     39 H39       -11.5046    4.9130   51.7764 H       1  ZINC000461336108    0.1000
     40 H40       -11.3795    1.8993   51.2723 H       1  ZINC000461336108    0.0900
     41 H41       -13.2832    2.1091   52.7346 H       1  ZINC000461336108    0.0600
     42 H42       -13.6662    3.7565   52.1347 H       1  ZINC000461336108    0.0600
     43 H43       -14.0037    1.0742   50.6831 H       1  ZINC000461336108    0.0700
     44 H44       -15.1966    2.3995   50.8574 H       1  ZINC000461336108    0.0700
     45 H45       -13.5821    2.1000   48.6258 H       1  ZINC000461336108    0.0700
     46 H46       -14.2032    3.6808   49.1792 H       1  ZINC000461336108    0.0600
     47 H47       -12.0713    4.3508   49.6583 H       1  ZINC000461336108    0.0700
     48 H48       -11.4501    2.7700   49.1049 H       1  ZINC000461336108    0.0700
     49 H49        -7.3762    2.9576   53.6974 H       1  ZINC000461336108    0.1200
     50 H50        -8.9503    3.6952   54.0803 H       1  ZINC000461336108    0.1000
     51 H51        -7.9819    0.6838   51.9225 H       1  ZINC000461336108    0.1400
     52 H52        -9.2827   -1.4546   52.3888 H       1  ZINC000461336108    0.1500
     53 H53       -10.9694   -1.2601   54.2746 H       1  ZINC000461336108    0.1700
@<TRIPOS>BOND
     1     1     2    1
     2     1    28    1
     3     1    29    1
     4     1    30    1
     5     2     3    1
     6     2    10    1
     7     2     4    1
     8     4     5    2
     9     4     6   am
    10     6     7    1
    11     6     8    1
    12     7    31    1
    13     7    32    1
    14     7    33    1
    15     8     9    1
    16     8    34    1
    17     8    35    1
    18     9    10    1
    19     9    36    1
    20     9    37    1
    21    10    11    1
    22    11    21    1
    23    11    12    2
    24    12    13    1
    25    13    14    2
    26    14    15    1
    27    14    21    1
    28    15    16    1
    29    15    38    1
    30    15    39    1
    31    16    20    1
    32    16    17    1
    33    16    40    1
    34    17    18    1
    35    17    41    1
    36    17    42    1
    37    18    19    1
    38    18    43    1
    39    18    44    1
    40    19    20    1
    41    19    45    1
    42    19    46    1
    43    20    47    1
    44    20    48    1
    45    21    22    1
    46    22    23    1
    47    22    49    1
    48    22    50    1
    49    23    27    1
    50    23    24    2
    51    24    25    1
    52    24    51    1
    53    25    26    2
    54    25    52    1
    55    26    27    1
    56    26    53    1
@<TRIPOS>SUBSTRUCTURE
     1 ZINC000461336108        1 TEMP              0 ****  ****    0 ROOT


##########                                Name:    ZINC000542980334
##########                DOCK_Rotatable_Bonds:                   6
##########                         Heavy_Atoms:                  27
##########                    Molecular_Weight:             404.795
##########                DOCK_Rotatable_Bonds:                   6
##########                       Formal_Charge:           0.0300001
##########                     HBond_Acceptors:                  10
##########                        HBond_Donors:                   1
##########                         Heavy_Atoms:                  27
##########                          Grid_Score:          -27.601000
##########                     Grid_vdw_energy:          -27.830894
##########                      Grid_es_energy:            0.229895
##########           Internal_energy_repulsive:           12.939353

@<TRIPOS>MOLECULE
ZINC000542980334
 44 46 1 0 0
SMALL
USER_CHARGES


@<TRIPOS>ATOM
      1 O1         -9.4324    0.9297   55.2940 O.2     1  ZINC000542980334   -0.5800
      2 C2         -8.7154    1.9041   55.4159 C.2     1  ZINC000542980334    0.7100
      3 N3         -8.1619    2.4739   54.3273 N.am    1  ZINC000542980334   -0.7400
      4 C4         -8.4192    1.9158   52.9974 C.3     1  ZINC000542980334    0.1800
      5 C5         -7.1640    1.9961   52.1674 C.ar    1  ZINC000542980334   -0.1400
      6 C6         -6.7992    3.1940   51.5778 C.ar    1  ZINC000542980334    0.1300
      7 F7         -7.5682    4.2920   51.7461 F       1  ZINC000542980334   -0.1200
      8 C8         -5.6451    3.2666   50.8157 C.ar    1  ZINC000542980334   -0.1500
      9 C9         -4.8586    2.1435   50.6441 C.ar    1  ZINC000542980334   -0.0700
     10 C10        -5.2230    0.9470   51.2330 C.ar    1  ZINC000542980334   -0.1200
     11 C11        -6.3727    0.8739   51.9990 C.ar    1  ZINC000542980334    0.0100
     12 Cl12       -6.8290   -0.6289   52.7385 Cl      1  ZINC000542980334   -0.0400
     13 N13        -8.4787    2.4176   56.6394 N.am    1  ZINC000542980334   -0.6300
     14 C14        -7.6195    3.5982   56.8022 C.3     1  ZINC000542980334    0.1100
     15 C15        -6.5214    3.2724   57.8194 C.3     1  ZINC000542980334   -0.1300
     16 C16        -7.1644    2.7791   59.1176 C.3     1  ZINC000542980334   -0.1300
     17 C17        -7.9611    1.5021   58.8411 C.3     1  ZINC000542980334    0.1400
     18 H18        -7.2979    0.7415   58.4291 H       1  ZINC000542980334    0.1100
     19 N19        -8.5496    1.0128   60.0904 N.pl3   1  ZINC000542980334   -0.3400
     20 C20        -9.7363    0.3823   60.2154 C.2     1  ZINC000542980334    0.0600
     21 C21        -9.9148    0.0954   61.5258 C.2     1  ZINC000542980334   -0.2300
     22 C22        -8.7991    0.5667   62.2254 C.2     1  ZINC000542980334   -0.0200
     23 C23        -8.5784    0.4594   63.7123 C.3     1  ZINC000542980334    0.5600
     24 F24        -9.1095    1.5884   64.3451 F       1  ZINC000542980334   -0.1700
     25 F25        -9.2142   -0.6889   64.1964 F       1  ZINC000542980334   -0.1700
     26 F26        -7.2068    0.3791   63.9756 F       1  ZINC000542980334   -0.1600
     27 N27        -7.9774    1.1114   61.3652 N.2     1  ZINC000542980334   -0.2300
     28 C28        -9.0800    1.8113   57.8349 C.3     1  ZINC000542980334    0.1300
     29 H29        -7.5931    3.2537   54.4242 H       1  ZINC000542980334    0.4000
     30 H30        -8.7251    0.8740   53.0936 H       1  ZINC000542980334    0.0900
     31 H31        -9.2127    2.4841   52.5121 H       1  ZINC000542980334    0.0900
     32 H32        -5.3600    4.2010   50.3551 H       1  ZINC000542980334    0.1500
     33 H33        -3.9589    2.2005   50.0495 H       1  ZINC000542980334    0.1500
     34 H34        -4.6078    0.0697   51.0980 H       1  ZINC000542980334    0.1500
     35 H35        -7.1661    3.8550   55.8447 H       1  ZINC000542980334    0.0800
     36 H36        -8.2150    4.4367   57.1633 H       1  ZINC000542980334    0.0800
     37 H37        -5.8717    2.4951   57.4170 H       1  ZINC000542980334    0.0800
     38 H38        -5.9351    4.1687   58.0215 H       1  ZINC000542980334    0.0900
     39 H39        -6.3862    2.5699   59.8517 H       1  ZINC000542980334    0.0800
     40 H40        -7.8330    3.5472   59.5064 H       1  ZINC000542980334    0.0800
     41 H41       -10.4209    0.1488   59.4135 H       1  ZINC000542980334    0.1900
     42 H42       -10.7682   -0.4080   61.9555 H       1  ZINC000542980334    0.1600
     43 H43        -9.7933    2.5032   58.2827 H       1  ZINC000542980334    0.0800
     44 H44        -9.5883    0.8875   57.5583 H       1  ZINC000542980334    0.1100
@<TRIPOS>BOND
     1     1     2    2
     2     2     3   am
     3     2    13   am
     4     3     4    1
     5     3    29    1
     6     4     5    1
     7     4    30    1
     8     4    31    1
     9     5    11   ar
    10     5     6   ar
    11     6     7    1
    12     6     8   ar
    13     8     9   ar
    14     8    32    1
    15     9    10   ar
    16     9    33    1
    17    10    11   ar
    18    10    34    1
    19    11    12    1
    20    13    28    1
    21    13    14    1
    22    14    15    1
    23    14    35    1
    24    14    36    1
    25    15    16    1
    26    15    37    1
    27    15    38    1
    28    16    17    1
    29    16    39    1
    30    16    40    1
    31    17    18    1
    32    17    19    1
    33    17    28    1
    34    19    27    1
    35    19    20    1
    36    20    21    2
    37    20    41    1
    38    21    22    1
    39    21    42    1
    40    22    23    1
    41    22    27    2
    42    23    24    1
    43    23    25    1
    44    23    26    1
    45    28    43    1
    46    28    44    1
@<TRIPOS>SUBSTRUCTURE
     1 ZINC000542980334        1 TEMP              0 ****  ****    0 ROOT


##########                                Name:    ZINC000867639366
##########                DOCK_Rotatable_Bonds:                   6
##########                         Heavy_Atoms:                  25
##########                    Molecular_Weight:             388.509
##########                DOCK_Rotatable_Bonds:                   6
##########                       Formal_Charge:          0.00999961
##########                     HBond_Acceptors:                   9
##########                        HBond_Donors:                   1
##########                         Heavy_Atoms:                  25
##########                          Grid_Score:          -27.588337
##########                     Grid_vdw_energy:          -24.576544
##########                      Grid_es_energy:           -3.011793
##########           Internal_energy_repulsive:           38.851196

@<TRIPOS>MOLECULE
ZINC000867639366
 49 51 1 0 0
SMALL
USER_CHARGES


@<TRIPOS>ATOM
      1 C1         -8.5203    4.9633   49.2429 C.3     1  ZINC000867639366    0.0300
      2 O2         -7.8962    3.9464   50.0292 O.3     1  ZINC000867639366   -0.3800
      3 C3         -6.7937    4.4107   50.8109 C.3     1  ZINC000867639366    0.0800
      4 H4         -6.4492    5.3686   50.4210 H       1  ZINC000867639366    0.0800
      5 C5         -5.6538    3.3918   50.7424 C.3     1  ZINC000867639366   -0.1400
      6 C6         -6.1462    2.0377   51.2581 C.3     1  ZINC000867639366   -0.1200
      7 C7         -6.5804    2.1798   52.7203 C.3     1  ZINC000867639366    0.1500
      8 H8         -5.7149    2.4234   53.3364 H       1  ZINC000867639366    0.0800
      9 C9         -7.1991    0.8659   53.2017 C.3     1  ZINC000867639366   -0.1900
     10 N10        -7.5727    3.2591   52.8161 N.am    1  ZINC000867639366   -0.9800
     11 S11        -9.0434    2.9921   53.5289 S.o2    1  ZINC000867639366    2.6900
     12 O12        -9.6925    4.2546   53.5948 O.2     1  ZINC000867639366   -0.9500
     13 O13        -9.6062    1.8621   52.8767 O.2     1  ZINC000867639366   -0.9400
     14 C14        -8.7353    2.5037   55.1935 C.ar    1  ZINC000867639366   -0.6300
     15 C15        -9.6353    1.6865   55.8519 C.ar    1  ZINC000867639366   -0.0500
     16 C16        -9.3935    1.3033   57.1579 C.ar    1  ZINC000867639366   -0.0400
     17 C17        -8.2517    1.7367   57.8054 C.ar    1  ZINC000867639366   -0.6300
     18 S18        -7.9439    1.2487   59.4702 S.o2    1  ZINC000867639366    2.7000
     19 O19        -9.1133    0.5740   59.9133 O.2     1  ZINC000867639366   -0.9400
     20 O20        -6.6527    0.6554   59.4821 O.2     1  ZINC000867639366   -0.9500
     21 N21        -7.8314    2.6319   60.3737 N.am    1  ZINC000867639366   -1.0800
     22 C22        -8.9659    3.5561   60.4426 C.3     1  ZINC000867639366    0.0800
     23 C23        -9.2344    4.2466   61.7812 C.3     1  ZINC000867639366   -0.1800
     24 C24        -8.6553    5.0448   60.6114 C.3     1  ZINC000867639366   -0.1900
     25 C25        -7.3511    2.5526   57.1466 C.ar    1  ZINC000867639366   -0.0400
     26 C26        -7.5909    2.9328   55.8393 C.ar    1  ZINC000867639366   -0.0400
     27 C27        -7.2354    4.5805   52.2678 C.3     1  ZINC000867639366    0.1200
     28 H28        -8.8984    5.7481   49.8979 H       1  ZINC000867639366    0.0400
     29 H29        -7.7917    5.3866   48.5516 H       1  ZINC000867639366    0.0400
     30 H30        -9.3470    4.5306   48.6794 H       1  ZINC000867639366    0.0900
     31 H31        -5.3212    3.2879   49.7095 H       1  ZINC000867639366    0.0700
     32 H32        -4.8227    3.7347   51.3586 H       1  ZINC000867639366    0.0700
     33 H33        -6.9932    1.7058   50.6577 H       1  ZINC000867639366    0.0800
     34 H34        -5.3408    1.3066   51.1872 H       1  ZINC000867639366    0.0800
     35 H35        -6.4275    0.0976   53.2514 H       1  ZINC000867639366    0.0700
     36 H36        -7.6330    1.0097   54.1912 H       1  ZINC000867639366    0.0600
     37 H37        -7.9777    0.5543   52.5054 H       1  ZINC000867639366    0.1000
     38 H38       -10.5274    1.3479   55.3461 H       1  ZINC000867639366    0.1600
     39 H39       -10.0970    0.6655   57.6725 H       1  ZINC000867639366    0.1500
     40 H40        -7.0142    2.8302   60.8573 H       1  ZINC000867639366    0.4200
     41 H41        -9.8284    3.2881   59.8322 H       1  ZINC000867639366    0.1400
     42 H42       -10.2737    4.4327   62.0520 H       1  ZINC000867639366    0.1100
     43 H43        -8.5668    4.0132   62.6107 H       1  ZINC000867639366    0.1000
     44 H44        -7.6067    5.3364   60.6712 H       1  ZINC000867639366    0.1000
     45 H45        -9.3135    5.7559   60.1125 H       1  ZINC000867639366    0.1000
     46 H46        -6.4589    2.8909   57.6523 H       1  ZINC000867639366    0.1500
     47 H47        -6.8873    3.5702   55.3246 H       1  ZINC000867639366    0.1500
     48 H48        -6.4233    5.0200   52.8470 H       1  ZINC000867639366    0.0900
     49 H49        -8.1106    5.2286   52.3116 H       1  ZINC000867639366    0.1000
@<TRIPOS>BOND
     1     1     2    1
     2     1    28    1
     3     1    29    1
     4     1    30    1
     5     2     3    1
     6     3     4    1
     7     3    27    1
     8     3     5    1
     9     5     6    1
    10     5    31    1
    11     5    32    1
    12     6     7    1
    13     6    33    1
    14     6    34    1
    15     7     8    1
    16     7     9    1
    17     7    10    1
    18     9    35    1
    19     9    36    1
    20     9    37    1
    21    10    11   am
    22    10    27    1
    23    11    12    2
    24    11    13    2
    25    11    14    1
    26    14    26   ar
    27    14    15   ar
    28    15    16   ar
    29    15    38    1
    30    16    17   ar
    31    16    39    1
    32    17    18    1
    33    17    25   ar
    34    18    19    2
    35    18    20    2
    36    18    21   am
    37    21    22    1
    38    21    40    1
    39    22    24    1
    40    22    23    1
    41    22    41    1
    42    23    24    1
    43    23    42    1
    44    23    43    1
    45    24    44    1
    46    24    45    1
    47    25    26   ar
    48    25    46    1
    49    26    47    1
    50    27    48    1
    51    27    49    1
@<TRIPOS>SUBSTRUCTURE
     1 ZINC000867639366        1 TEMP              0 ****  ****    0 ROOT


##########                                Name:    ZINC000443394081
##########                DOCK_Rotatable_Bonds:                   8
##########                         Heavy_Atoms:                  27
##########                    Molecular_Weight:             389.878
##########                DOCK_Rotatable_Bonds:                   8
##########                       Formal_Charge:          -0.0300003
##########                     HBond_Acceptors:                   6
##########                        HBond_Donors:                   1
##########                         Heavy_Atoms:                  27
##########                          Grid_Score:          -27.582012
##########                     Grid_vdw_energy:          -26.485346
##########                      Grid_es_energy:           -1.096666
##########           Internal_energy_repulsive:           33.592072

@<TRIPOS>MOLECULE
ZINC000443394081
 51 53 1 0 0
SMALL
USER_CHARGES


@<TRIPOS>ATOM
      1 C1         -1.7235    2.1701   57.3507 C.3     1  ZINC000443394081    0.0200
      2 O2         -1.1488    3.4768   57.2836 O.3     1  ZINC000443394081   -0.3000
      3 C3         -1.0148    4.0296   56.0483 C.ar    1  ZINC000443394081    0.1000
      4 C4         -2.1151    4.1499   55.2224 C.ar    1  ZINC000443394081   -0.1200
      5 C5         -1.9738    4.7189   53.9536 C.ar    1  ZINC000443394081   -0.1300
      6 C6         -3.1466    4.8503   53.0671 C.2     1  ZINC000443394081    0.5700
      7 O7         -3.8174    5.8641   53.0925 O.2     1  ZINC000443394081   -0.4900
      8 N8         -3.4740    3.8466   52.2295 N.am    1  ZINC000443394081   -0.6100
      9 C9         -2.7515    2.5684   52.0963 C.3     1  ZINC000443394081    0.0900
     10 C10        -3.8015    1.5756   51.5382 C.3     1  ZINC000443394081   -0.1300
     11 C11        -4.6050    2.4835   50.5701 C.3     1  ZINC000443394081   -0.1000
     12 H12        -4.0999    2.5633   49.6075 H       1  ZINC000443394081    0.0900
     13 C13        -6.0295    1.9554   50.3896 C.3     1  ZINC000443394081   -0.1500
     14 C14        -4.6145    3.8422   51.3017 C.3     1  ZINC000443394081    0.1400
     15 H15        -4.5026    4.6522   50.5809 H       1  ZINC000443394081    0.0800
     16 C16        -5.9257    4.0092   52.0722 C.3     1  ZINC000443394081    0.0600
     17 O17        -5.9411    3.1139   53.1859 O.3     1  ZINC000443394081   -0.5400
     18 C18        -0.7205    5.1635   53.5266 C.ar    1  ZINC000443394081   -0.1000
     19 C19         0.3738    5.0401   54.3556 C.ar    1  ZINC000443394081   -0.1800
     20 C20         0.2326    4.4803   55.6177 C.ar    1  ZINC000443394081    0.1300
     21 O21         1.3137    4.3609   56.4307 O.3     1  ZINC000443394081   -0.3000
     22 C22         1.7829    3.0374   56.6959 C.3     1  ZINC000443394081    0.1000
     23 C23         2.9694    2.7394   55.8159 C.ar    1  ZINC000443394081   -0.0800
     24 C24         2.8402    2.7902   54.4409 C.ar    1  ZINC000443394081   -0.0800
     25 C25         3.9287    2.5167   53.6334 C.ar    1  ZINC000443394081   -0.1100
     26 C26         5.1465    2.1919   54.2007 C.ar    1  ZINC000443394081   -0.1000
     27 C27         5.2770    2.1407   55.5760 C.ar    1  ZINC000443394081   -0.1100
     28 C28         4.1900    2.4203   56.3845 C.ar    1  ZINC000443394081   -0.0300
     29 Cl29        4.3530    2.3562   58.1116 Cl      1  ZINC000443394081   -0.0700
     30 H30        -1.7727    1.8479   58.3908 H       1  ZINC000443394081    0.1000
     31 H31        -2.7285    2.1932   56.9296 H       1  ZINC000443394081    0.0600
     32 H32        -1.1075    1.4727   56.7830 H       1  ZINC000443394081    0.0600
     33 H33        -3.0825    3.8047   55.5560 H       1  ZINC000443394081    0.1500
     34 H34        -1.9204    2.6733   51.3989 H       1  ZINC000443394081    0.0700
     35 H35        -2.3916    2.2330   53.0689 H       1  ZINC000443394081    0.0800
     36 H36        -3.3199    0.7597   50.9994 H       1  ZINC000443394081    0.0900
     37 H37        -4.4394    1.1929   52.3349 H       1  ZINC000443394081    0.0800
     38 H38        -6.5264    1.9116   51.3587 H       1  ZINC000443394081    0.0600
     39 H39        -6.5828    2.6214   49.7274 H       1  ZINC000443394081    0.0600
     40 H40        -5.9944    0.9569   49.9539 H       1  ZINC000443394081    0.0600
     41 H41        -6.0087    5.0354   52.4299 H       1  ZINC000443394081    0.0600
     42 H42        -6.7650    3.7848   51.4140 H       1  ZINC000443394081    0.0400
     43 H43        -5.8457    2.1827   52.9433 H       1  ZINC000443394081    0.3700
     44 H44        -0.6087    5.6035   52.5467 H       1  ZINC000443394081    0.1400
     45 H45         1.3424    5.3839   54.0240 H       1  ZINC000443394081    0.1400
     46 H46         2.0781    2.9595   57.7424 H       1  ZINC000443394081    0.0800
     47 H47         0.9877    2.3215   56.4884 H       1  ZINC000443394081    0.0800
     48 H48         1.8887    3.0432   53.9971 H       1  ZINC000443394081    0.1400
     49 H49         3.8272    2.5565   52.5589 H       1  ZINC000443394081    0.1300
     50 H50         5.9962    1.9776   53.5694 H       1  ZINC000443394081    0.1300
     51 H51         6.2287    1.8869   56.0191 H       1  ZINC000443394081    0.1400
@<TRIPOS>BOND
     1     1     2    1
     2     1    30    1
     3     1    31    1
     4     1    32    1
     5     2     3    1
     6     3    20   ar
     7     3     4   ar
     8     4     5   ar
     9     4    33    1
    10     5     6    1
    11     5    18   ar
    12     6     7    2
    13     6     8   am
    14     8    14    1
    15     8     9    1
    16     9    10    1
    17     9    34    1
    18     9    35    1
    19    10    11    1
    20    10    36    1
    21    10    37    1
    22    11    12    1
    23    11    13    1
    24    11    14    1
    25    13    38    1
    26    13    39    1
    27    13    40    1
    28    14    15    1
    29    14    16    1
    30    16    17    1
    31    16    41    1
    32    16    42    1
    33    17    43    1
    34    18    19   ar
    35    18    44    1
    36    19    20   ar
    37    19    45    1
    38    20    21    1
    39    21    22    1
    40    22    23    1
    41    22    46    1
    42    22    47    1
    43    23    28   ar
    44    23    24   ar
    45    24    25   ar
    46    24    48    1
    47    25    26   ar
    48    25    49    1
    49    26    27   ar
    50    26    50    1
    51    27    28   ar
    52    27    51    1
    53    28    29    1
@<TRIPOS>SUBSTRUCTURE
     1 ZINC000443394081        1 TEMP              0 ****  ****    0 ROOT


##########                                Name:    ZINC000274267583
##########                DOCK_Rotatable_Bonds:                   5
##########                         Heavy_Atoms:                  24
##########                    Molecular_Weight:             349.407
##########                DOCK_Rotatable_Bonds:                   5
##########                       Formal_Charge:           0.0300001
##########                     HBond_Acceptors:                   7
##########                        HBond_Donors:                   1
##########                         Heavy_Atoms:                  24
##########                          Grid_Score:          -27.580956
##########                     Grid_vdw_energy:          -27.103416
##########                      Grid_es_energy:           -0.477539
##########           Internal_energy_repulsive:           15.219723

@<TRIPOS>MOLECULE
ZINC000274267583
 43 45 1 0 0
SMALL
USER_CHARGES


@<TRIPOS>ATOM
      1 C1         -9.8636    4.0928   55.4583 C.3     1  ZINC000274267583    0.0200
      2 O2         -9.8530    4.1819   54.0322 O.3     1  ZINC000274267583   -0.3100
      3 C3         -8.8863    3.4859   53.3777 C.ar    1  ZINC000274267583    0.1900
      4 C4         -8.2036    2.4673   54.0265 C.ar    1  ZINC000274267583   -0.2300
      5 C5         -7.2217    1.7611   53.3588 C.ar    1  ZINC000274267583    0.0300
      6 C6         -6.9190    2.0690   52.0454 C.ar    1  ZINC000274267583   -0.7200
      7 S7         -5.6658    1.1668   51.1969 S.o2    1  ZINC000274267583    2.7000
      8 O8         -5.8430   -0.1975   51.5525 O.2     1  ZINC000274267583   -0.9500
      9 O9         -5.6797    1.6278   49.8528 O.2     1  ZINC000274267583   -0.9500
     10 N10        -4.2100    1.6311   51.8354 N.am    1  ZINC000274267583   -1.1100
     11 C11        -3.7938    3.0341   51.7663 C.3     1  ZINC000274267583    0.2100
     12 H12        -4.3876    3.5517   51.0130 H       1  ZINC000274267583    0.1000
     13 C13        -4.0097    3.6969   53.1289 C.3     1  ZINC000274267583   -0.1800
     14 C14        -3.3032    5.0585   53.1200 C.3     1  ZINC000274267583    0.0600
     15 O15        -1.8982    4.8361   52.9923 O.3     1  ZINC000274267583   -0.3100
     16 C16        -1.4749    3.9965   52.0105 C.ar    1  ZINC000274267583    0.1100
     17 C17        -0.1382    4.0441   51.6291 C.ar    1  ZINC000274267583   -0.1100
     18 C18         0.3336    3.2056   50.6399 C.ar    1  ZINC000274267583   -0.1600
     19 C19        -0.5278    2.3109   50.0231 C.ar    1  ZINC000274267583    0.0900
     20 O20        -0.0659    1.4812   49.0498 O.3     1  ZINC000274267583   -0.3200
     21 C21         1.3273    1.5560   48.7408 C.3     1  ZINC000274267583    0.0300
     22 C22        -1.8603    2.2640   50.4006 C.ar    1  ZINC000274267583   -0.1000
     23 C23        -2.3350    3.1067   51.3923 C.ar    1  ZINC000274267583   -0.1400
     24 C24        -7.5983    3.0835   51.3965 C.ar    1  ZINC000274267583    0.0200
     25 C25        -8.5846    3.7893   52.0580 C.ar    1  ZINC000274267583   -0.1700
     26 H26        -9.9985    3.0531   55.7564 H       1  ZINC000274267583    0.0600
     27 H27        -8.9176    4.4640   55.8526 H       1  ZINC000274267583    0.0600
     28 H28       -10.6827    4.6934   55.8538 H       1  ZINC000274267583    0.1100
     29 H29        -8.4392    2.2268   55.0526 H       1  ZINC000274267583    0.1400
     30 H30        -6.6900    0.9680   53.8635 H       1  ZINC000274267583    0.1400
     31 H31        -3.6328    0.9741   52.2550 H       1  ZINC000274267583    0.4200
     32 H32        -5.0763    3.8376   53.3042 H       1  ZINC000274267583    0.1000
     33 H33        -3.5877    3.0693   53.9138 H       1  ZINC000274267583    0.0900
     34 H34        -3.6591    5.6512   52.2772 H       1  ZINC000274267583    0.0700
     35 H35        -3.5084    5.5848   54.0522 H       1  ZINC000274267583    0.1200
     36 H36         0.5333    4.7407   52.1090 H       1  ZINC000274267583    0.1400
     37 H37         1.3721    3.2464   50.3463 H       1  ZINC000274267583    0.1400
     38 H38         1.5717    2.5642   48.4064 H       1  ZINC000274267583    0.0600
     39 H39         1.9101    1.3171   49.6305 H       1  ZINC000274267583    0.0600
     40 H40         1.5629    0.8438   47.9501 H       1  ZINC000274267583    0.1000
     41 H41        -2.5312    1.5674   49.9200 H       1  ZINC000274267583    0.1300
     42 H42        -7.3602    3.3220   50.3704 H       1  ZINC000274267583    0.1500
     43 H43        -9.1149    4.5816   51.5507 H       1  ZINC000274267583    0.1400
@<TRIPOS>BOND
     1     1     2    1
     2     1    26    1
     3     1    27    1
     4     1    28    1
     5     2     3    1
     6     3    25   ar
     7     3     4   ar
     8     4     5   ar
     9     4    29    1
    10     5     6   ar
    11     5    30    1
    12     6     7    1
    13     6    24   ar
    14     7     8    2
    15     7     9    2
    16     7    10   am
    17    10    11    1
    18    10    31    1
    19    11    12    1
    20    11    23    1
    21    11    13    1
    22    13    14    1
    23    13    32    1
    24    13    33    1
    25    14    15    1
    26    14    34    1
    27    14    35    1
    28    15    16    1
    29    16    23   ar
    30    16    17   ar
    31    17    18   ar
    32    17    36    1
    33    18    19   ar
    34    18    37    1
    35    19    20    1
    36    19    22   ar
    37    20    21    1
    38    21    38    1
    39    21    39    1
    40    21    40    1
    41    22    23   ar
    42    22    41    1
    43    24    25   ar
    44    24    42    1
    45    25    43    1
@<TRIPOS>SUBSTRUCTURE
     1 ZINC000274267583        1 TEMP              0 ****  ****    0 ROOT


##########                                Name:    ZINC000013551438
##########                DOCK_Rotatable_Bonds:                   5
##########                         Heavy_Atoms:                  27
##########                    Molecular_Weight:             377.467
##########                DOCK_Rotatable_Bonds:                   5
##########                       Formal_Charge:          -0.0300005
##########                     HBond_Acceptors:                   6
##########                        HBond_Donors:                   1
##########                         Heavy_Atoms:                  27
##########                          Grid_Score:          -27.575420
##########                     Grid_vdw_energy:          -28.592909
##########                      Grid_es_energy:            1.017489
##########           Internal_energy_repulsive:           21.478895

@<TRIPOS>MOLECULE
ZINC000013551438
 46 49 1 0 0
SMALL
USER_CHARGES


@<TRIPOS>ATOM
      1 C1          1.8539    2.8658   49.6062 C.3     1  <0>         0.0300
      2 O2          1.2596    2.2826   50.7675 O.3     1  <0>        -0.3200
      3 C3         -0.0970    2.3244   50.8539 C.ar    1  <0>         0.1000
      4 C4         -0.8736    1.9387   49.7649 C.ar    1  <0>        -0.1800
      5 C5         -2.2484    1.9754   49.8362 C.ar    1  <0>        -0.0900
      6 C6         -2.8732    2.4004   51.0042 C.ar    1  <0>         0.0700
      7 C7         -2.0909    2.7896   52.1048 C.ar    1  <0>        -0.0400
      8 C8         -0.6995    2.7439   52.0240 C.ar    1  <0>        -0.1100
      9 C9         -3.0386    3.1782   53.1613 C.2     1  <0>        -0.1200
     10 C10        -2.6977    3.6652   54.5205 C.2     1  <0>         0.1700
     11 C11        -3.0627    4.8783   54.9761 C.2     1  <0>        -0.3000
     12 S12        -2.4579    5.0471   56.6219 S.3     1  <0>         0.2500
     13 C13        -1.7748    3.4823   56.5471 C.2     1  <0>         0.2400
     14 N14        -1.0711    2.8750   57.5786 N.am    1  <0>        -0.6200
     15 C15        -0.7951    3.5644   58.7033 C.2     1  <0>         0.5600
     16 O16        -1.1635    4.7175   58.8153 O.2     1  <0>        -0.5000
     17 C17        -0.0445    2.9186   59.8005 C.ar    1  <0>        -0.1400
     18 C18         0.3587    3.6656   60.9087 C.ar    1  <0>        -0.0800
     19 C19         1.0585    3.0566   61.9297 C.ar    1  <0>        -0.1300
     20 C20         1.3609    1.7083   61.8570 C.ar    1  <0>        -0.0800
     21 C21         0.9647    0.9622   60.7612 C.ar    1  <0>        -0.1300
     22 C22         0.2592    1.5576   59.7360 C.ar    1  <0>        -0.0500
     23 N23        -2.0114    2.9405   55.3950 N.2     1  <0>        -0.5000
     24 C24        -4.2820    3.0062   52.6530 C.2     1  <0>         0.1300
     25 C25        -5.5664    3.2838   53.3908 C.3     1  <0>        -0.0900
     26 N26        -4.1962    2.5433   51.3687 N.pl3   1  <0>        -0.4800
     27 C27        -5.3417    2.2438   50.5060 C.3     1  <0>         0.0800
     28 H28         1.5896    3.9221   49.5542 H       1  <0>         0.0500
     29 H29         2.9378    2.7649   49.6632 H       1  <0>         0.1000
     30 H30         1.4878    2.3555   48.7154 H       1  <0>         0.0500
     31 H31        -0.3935    1.6083   48.8556 H       1  <0>         0.1300
     32 H32        -2.8415    1.6743   48.9853 H       1  <0>         0.1200
     33 H33        -0.0963    3.0427   52.8685 H       1  <0>         0.1300
     34 H34        -3.6273    5.6183   54.4284 H       1  <0>         0.1800
     35 H35        -0.7782    1.9546   57.4897 H       1  <0>         0.4200
     36 H36         0.1236    4.7181   60.9665 H       1  <0>         0.1300
     37 H37         1.3714    3.6334   62.7874 H       1  <0>         0.1300
     38 H38         1.9090    1.2364   62.6590 H       1  <0>         0.1300
     39 H39         1.2042   -0.0897   60.7105 H       1  <0>         0.1300
     40 H40        -0.0497    0.9740   58.8815 H       1  <0>         0.1400
     41 H41        -5.9148    4.2879   53.1486 H       1  <0>         0.0800
     42 H42        -6.3210    2.5557   53.0931 H       1  <0>         0.0700
     43 H43        -5.3924    3.2086   54.4641 H       1  <0>         0.0800
     44 H44        -5.6166    3.1364   49.9441 H       1  <0>         0.0700
     45 H45        -5.0758    1.4457   49.8128 H       1  <0>         0.0800
     46 H46        -6.1852    1.9265   51.1191 H       1  <0>         0.0800
@<TRIPOS>BOND
     1     1     2    1
     2     1    28    1
     3     1    29    1
     4     1    30    1
     5     2     3    1
     6     3     8   ar
     7     3     4   ar
     8     4     5   ar
     9     4    31    1
    10     5     6   ar
    11     5    32    1
    12     6    26    1
    13     6     7   ar
    14     7     8   ar
    15     7     9    1
    16     8    33    1
    17     9    10    1
    18     9    24    2
    19    10    23    1
    20    10    11    2
    21    11    12    1
    22    11    34    1
    23    12    13    1
    24    13    14    1
    25    13    23    2
    26    14    15   am
    27    14    35    1
    28    15    16    2
    29    15    17    1
    30    17    22   ar
    31    17    18   ar
    32    18    19   ar
    33    18    36    1
    34    19    20   ar
    35    19    37    1
    36    20    21   ar
    37    20    38    1
    38    21    22   ar
    39    21    39    1
    40    22    40    1
    41    24    25    1
    42    24    26    1
    43    25    41    1
    44    25    42    1
    45    25    43    1
    46    26    27    1
    47    27    44    1
    48    27    45    1
    49    27    46    1
@<TRIPOS>SUBSTRUCTURE
     1 <0>         1 TEMP              0 ****  ****    0 ROOT


##########                                Name:    ZINC000506156755
##########                DOCK_Rotatable_Bonds:                   7
##########                         Heavy_Atoms:                  30
##########                    Molecular_Weight:             400.434
##########                DOCK_Rotatable_Bonds:                   7
##########                       Formal_Charge:          -0.0200001
##########                     HBond_Acceptors:                   6
##########                        HBond_Donors:                   1
##########                         Heavy_Atoms:                  30
##########                          Grid_Score:          -27.570618
##########                     Grid_vdw_energy:          -26.936657
##########                      Grid_es_energy:           -0.633960
##########           Internal_energy_repulsive:           12.200160

@<TRIPOS>MOLECULE
ZINC000506156755
 50 53 1 0 0
SMALL
USER_CHARGES


@<TRIPOS>ATOM
      1 C1        -11.7519    3.0771   58.7753 C.3     1  ZINC000506156755   -0.1600
      2 C2        -10.9768    1.9257   58.1315 C.3     1  ZINC000506156755    0.1900
      3 H3         -9.9090    2.0700   58.2955 H       1  ZINC000506156755    0.1000
      4 N4        -11.2505    1.8972   56.6925 N.am    1  ZINC000506156755   -0.7200
      5 C5        -10.6825    0.9524   55.9172 C.2     1  ZINC000506156755    0.5000
      6 O6         -9.9436    0.1268   56.4104 O.2     1  ZINC000506156755   -0.5200
      7 C7        -10.9654    0.9219   54.4373 C.3     1  ZINC000506156755    0.0900
      8 N8         -9.7006    0.9276   53.6981 N.am    1  ZINC000506156755   -0.5600
      9 C9         -9.0961   -0.1732   53.2157 C.2     1  ZINC000506156755    0.5800
     10 O10        -9.5060   -1.3114   53.3224 O.2     1  ZINC000506156755   -0.4600
     11 C11        -7.8498    0.2346   52.5335 C.ar    1  ZINC000506156755   -0.1400
     12 C12        -6.8449   -0.4462   51.8661 C.ar    1  ZINC000506156755   -0.0400
     13 C13        -5.7799    0.2576   51.3250 C.ar    1  ZINC000506156755   -0.0900
     14 C14        -5.7145    1.6325   51.4470 C.ar    1  ZINC000506156755   -0.0900
     15 C15        -6.7131    2.3273   52.1124 C.ar    1  ZINC000506156755   -0.0400
     16 C16        -7.7831    1.6374   52.6581 C.ar    1  ZINC000506156755   -0.1400
     17 C17        -8.9938    2.0346   53.4075 C.2     1  ZINC000506156755    0.5800
     18 O18        -9.2984    3.1702   53.7116 O.2     1  ZINC000506156755   -0.4600
     19 C19       -11.4084    0.6214   58.7509 C.ar    1  ZINC000506156755   -0.1200
     20 C20       -12.5887    0.0244   58.3532 C.ar    1  ZINC000506156755   -0.0800
     21 C21       -12.9851   -1.1726   58.9208 C.ar    1  ZINC000506156755   -0.1400
     22 C22       -12.2015   -1.7751   59.8874 C.ar    1  ZINC000506156755   -0.0800
     23 C23       -11.0200   -1.1822   60.2889 C.ar    1  ZINC000506156755   -0.1900
     24 C24       -10.6174    0.0161   59.7172 C.ar    1  ZINC000506156755    0.1300
     25 O25        -9.4555    0.6011   60.1099 O.3     1  ZINC000506156755   -0.2500
     26 C26        -9.1262    0.5446   61.4271 C.ar    1  ZINC000506156755    0.0800
     27 C27       -10.0719    0.8544   62.3939 C.ar    1  ZINC000506156755   -0.1400
     28 C28        -9.7345    0.7962   63.7322 C.ar    1  ZINC000506156755   -0.1000
     29 C29        -8.4555    0.4298   64.1086 C.ar    1  ZINC000506156755   -0.1200
     30 C30        -7.5111    0.1207   63.1471 C.ar    1  ZINC000506156755   -0.1000
     31 C31        -7.8449    0.1717   61.8077 C.ar    1  ZINC000506156755   -0.1200
     32 H32       -11.4397    4.0205   58.3273 H       1  ZINC000506156755    0.0700
     33 H33       -12.8197    2.9328   58.6113 H       1  ZINC000506156755    0.0600
     34 H34       -11.5483    3.0983   59.8459 H       1  ZINC000506156755    0.0700
     35 H35       -11.8406    2.5582   56.2978 H       1  ZINC000506156755    0.4000
     36 H36       -11.5250    0.0190   54.1929 H       1  ZINC000506156755    0.1300
     37 H37       -11.5515    1.7985   54.1613 H       1  ZINC000506156755    0.1300
     38 H38        -6.8906   -1.5208   51.7679 H       1  ZINC000506156755    0.1400
     39 H39        -4.9958   -0.2724   50.8047 H       1  ZINC000506156755    0.1400
     40 H40        -4.8797    2.1696   51.0217 H       1  ZINC000506156755    0.1400
     41 H41        -6.6570    3.4019   52.2044 H       1  ZINC000506156755    0.1400
     42 H42       -13.2029    0.4932   57.5985 H       1  ZINC000506156755    0.1300
     43 H43       -13.9086   -1.6375   58.6086 H       1  ZINC000506156755    0.1300
     44 H44       -12.5135   -2.7099   60.3294 H       1  ZINC000506156755    0.1300
     45 H45       -10.4084   -1.6531   61.0443 H       1  ZINC000506156755    0.1300
     46 H46       -11.0710    1.1409   62.1004 H       1  ZINC000506156755    0.1300
     47 H47       -10.4702    1.0375   64.4851 H       1  ZINC000506156755    0.1300
     48 H48        -8.1935    0.3853   65.1554 H       1  ZINC000506156755    0.1300
     49 H49        -6.5127   -0.1653   63.4437 H       1  ZINC000506156755    0.1300
     50 H50        -7.1071   -0.0701   61.0571 H       1  ZINC000506156755    0.1300
@<TRIPOS>BOND
     1     1     2    1
     2     1    32    1
     3     1    33    1
     4     1    34    1
     5     2     3    1
     6     2     4    1
     7     2    19    1
     8     4     5   am
     9     4    35    1
    10     5     6    2
    11     5     7    1
    12     7     8    1
    13     7    36    1
    14     7    37    1
    15     8    17   am
    16     8     9   am
    17     9    10    2
    18     9    11    1
    19    11    16   ar
    20    11    12   ar
    21    12    13   ar
    22    12    38    1
    23    13    14   ar
    24    13    39    1
    25    14    15   ar
    26    14    40    1
    27    15    16   ar
    28    15    41    1
    29    16    17    1
    30    17    18    2
    31    19    24   ar
    32    19    20   ar
    33    20    21   ar
    34    20    42    1
    35    21    22   ar
    36    21    43    1
    37    22    23   ar
    38    22    44    1
    39    23    24   ar
    40    23    45    1
    41    24    25    1
    42    25    26    1
    43    26    31   ar
    44    26    27   ar
    45    27    28   ar
    46    27    46    1
    47    28    29   ar
    48    28    47    1
    49    29    30   ar
    50    29    48    1
    51    30    31   ar
    52    30    49    1
    53    31    50    1
@<TRIPOS>SUBSTRUCTURE
     1 ZINC000506156755        1 TEMP              0 ****  ****    0 ROOT


##########                                Name:    ZINC000154446008
##########                DOCK_Rotatable_Bonds:                   5
##########                         Heavy_Atoms:                  24
##########                    Molecular_Weight:              349.41
##########                DOCK_Rotatable_Bonds:                   5
##########                       Formal_Charge:          -0.0199999
##########                     HBond_Acceptors:                   8
##########                        HBond_Donors:                   0
##########                         Heavy_Atoms:                  24
##########                          Grid_Score:          -27.561852
##########                     Grid_vdw_energy:          -27.980572
##########                      Grid_es_energy:            0.418719
##########           Internal_energy_repulsive:           13.466545

@<TRIPOS>MOLECULE
ZINC000154446008
 43 45 1 0 0
SMALL
USER_CHARGES


@<TRIPOS>ATOM
      1 O1        -12.2079    1.0472   52.6961 O.2     1  ZINC000154446008   -0.5000
      2 C2        -11.3321    0.7562   53.4896 C.2     1  ZINC000154446008    0.5900
      3 C3         -9.9256    0.8074   53.0801 C.2     1  ZINC000154446008   -0.2300
      4 C4         -9.1513    1.9327   53.0425 C.2     1  ZINC000154446008   -0.0600
      5 C5         -7.8652    1.6939   52.6198 C.2     1  ZINC000154446008   -0.0500
      6 C6         -7.5936    0.4181   52.3211 C.2     1  ZINC000154446008   -0.2100
      7 N7         -6.2792   -0.0710   51.8472 N.pl3   1  ZINC000154446008    0.0500
      8 O8         -5.3633    0.7134   51.6758 O.2     1  ZINC000154446008   -0.1300
      9 O9         -6.1137   -1.2578   51.6287 O.2     1  ZINC000154446008   -0.1500
     10 S10        -8.9622   -0.5708   52.5660 S.3     1  ZINC000154446008    0.3500
     11 N11       -11.6554    0.3923   54.7464 N.am    1  ZINC000154446008   -0.6100
     12 C12       -13.0617    0.3307   55.1689 C.3     1  ZINC000154446008    0.0800
     13 C13       -13.3462   -1.0711   55.7220 C.3     1  ZINC000154446008    0.0900
     14 N14       -12.2989   -1.4139   56.6943 N.am    1  ZINC000154446008   -0.6100
     15 C15       -12.6222   -1.7787   57.9509 C.2     1  ZINC000154446008    0.5500
     16 O16       -11.7466   -2.0600   58.7467 O.2     1  ZINC000154446008   -0.5300
     17 C17       -14.0341   -1.8363   58.3597 C.2     1  ZINC000154446008   -0.1500
     18 C18       -14.7368   -2.8930   58.0133 C.2     1  ZINC000154446008   -0.1100
     19 C19       -16.1866   -3.0799   58.3541 C.3     1  ZINC000154446008   -0.1000
     20 C20       -16.5903   -2.1251   59.4796 C.3     1  ZINC000154446008   -0.1200
     21 C21       -16.1186   -0.7127   59.1125 C.3     1  ZINC000154446008   -0.1200
     22 C22       -14.5878   -0.6890   59.1533 C.3     1  ZINC000154446008   -0.0700
     23 C23       -10.8926   -1.3523   56.2718 C.3     1  ZINC000154446008    0.1000
     24 C24       -10.6083    0.0441   55.7171 C.3     1  ZINC000154446008    0.1000
     25 H25        -9.5137    2.9122   53.3175 H       1  ZINC000154446008    0.1800
     26 H26        -7.1281    2.4786   52.5346 H       1  ZINC000154446008    0.1800
     27 H27       -13.2433    1.0741   55.9452 H       1  ZINC000154446008    0.0900
     28 H28       -13.7093    0.5252   54.3141 H       1  ZINC000154446008    0.0900
     29 H29       -14.3189   -1.0799   56.2138 H       1  ZINC000154446008    0.1100
     30 H30       -13.3393   -1.7945   54.9066 H       1  ZINC000154446008    0.0800
     31 H31       -14.2422   -3.6710   57.4508 H       1  ZINC000154446008    0.1100
     32 H32       -16.7942   -2.8763   57.4724 H       1  ZINC000154446008    0.0900
     33 H33       -16.3527   -4.1081   58.6756 H       1  ZINC000154446008    0.0800
     34 H34       -17.6743   -2.1311   59.5937 H       1  ZINC000154446008    0.0700
     35 H35       -16.1195   -2.4378   60.4116 H       1  ZINC000154446008    0.0700
     36 H36       -16.4654   -0.4596   58.1107 H       1  ZINC000154446008    0.0700
     37 H37       -16.5143    0.0041   59.8321 H       1  ZINC000154446008    0.0700
     38 H38       -14.2527   -0.7629   60.1878 H       1  ZINC000154446008    0.0800
     39 H39       -14.2294    0.2473   58.7255 H       1  ZINC000154446008    0.0700
     40 H40       -10.2449   -1.5468   57.1266 H       1  ZINC000154446008    0.1100
     41 H41       -10.7110   -2.0957   55.4955 H       1  ZINC000154446008    0.0800
     42 H42        -9.6354    0.0515   55.2256 H       1  ZINC000154446008    0.1100
     43 H43       -10.6153    0.7694   56.5307 H       1  ZINC000154446008    0.0800
@<TRIPOS>BOND
     1     1     2    2
     2     2     3    1
     3     2    11   am
     4     3    10    1
     5     3     4    2
     6     4     5    1
     7     4    25    1
     8     5     6    2
     9     5    26    1
    10     6     7    1
    11     6    10    1
    12     7     8    2
    13     7     9    2
    14    11    24    1
    15    11    12    1
    16    12    13    1
    17    12    27    1
    18    12    28    1
    19    13    14    1
    20    13    29    1
    21    13    30    1
    22    14    15   am
    23    14    23    1
    24    15    16    2
    25    15    17    1
    26    17    22    1
    27    17    18    2
    28    18    19    1
    29    18    31    1
    30    19    20    1
    31    19    32    1
    32    19    33    1
    33    20    21    1
    34    20    34    1
    35    20    35    1
    36    21    22    1
    37    21    36    1
    38    21    37    1
    39    22    38    1
    40    22    39    1
    41    23    24    1
    42    23    40    1
    43    23    41    1
    44    24    42    1
    45    24    43    1
@<TRIPOS>SUBSTRUCTURE
     1 ZINC000154446008        1 TEMP              0 ****  ****    0 ROOT


##########                                Name:    ZINC000540473851
##########                DOCK_Rotatable_Bonds:                   5
##########                         Heavy_Atoms:                  29
##########                    Molecular_Weight:             411.503
##########                DOCK_Rotatable_Bonds:                   5
##########                       Formal_Charge:           0.0200001
##########                     HBond_Acceptors:                   8
##########                        HBond_Donors:                   0
##########                         Heavy_Atoms:                  29
##########                          Grid_Score:          -27.542292
##########                     Grid_vdw_energy:          -26.875051
##########                      Grid_es_energy:           -0.667240
##########           Internal_energy_repulsive:           25.429148

@<TRIPOS>MOLECULE
ZINC000540473851
 51 54 1 0 0
SMALL
USER_CHARGES


@<TRIPOS>ATOM
      1 C1        -10.2839   -0.6497   52.5905 C.3     1  ZINC000540473851   -0.0800
      2 C2        -10.2967   -0.0050   53.9526 C.2     1  ZINC000540473851    0.1500
      3 C3        -10.0754    1.3326   54.1466 C.2     1  ZINC000540473851   -0.3100
      4 C4         -9.7994    2.3251   53.1006 C.2     1  ZINC000540473851    0.6000
      5 O5        -10.6931    2.6958   52.3629 O.2     1  ZINC000540473851   -0.5100
      6 N6         -8.5562    2.8254   52.9577 N.am    1  ZINC000540473851   -0.6100
      7 C7         -7.4603    2.3864   53.8348 C.3     1  ZINC000540473851    0.1000
      8 C8         -6.2742    1.9678   52.9595 C.3     1  ZINC000540473851    0.0400
      9 N9         -5.9349    3.0645   52.0430 N.3     1  ZINC000540473851   -0.5300
     10 C10        -4.6981    2.7716   51.3065 C.3     1  ZINC000540473851    0.1200
     11 H11        -4.7494    3.2235   50.3158 H       1  ZINC000540473851    0.0500
     12 C12        -4.5336    1.2567   51.1680 C.3     1  ZINC000540473851   -0.1400
     13 C13        -3.5204    3.3382   52.0567 C.ar    1  ZINC000540473851   -0.0500
     14 C14        -3.6913    3.8411   53.3328 C.ar    1  ZINC000540473851   -0.1000
     15 C15        -2.6118    4.3614   54.0224 C.ar    1  ZINC000540473851   -0.0900
     16 C16        -1.3605    4.3791   53.4365 C.ar    1  ZINC000540473851   -0.1500
     17 C17        -1.1879    3.8751   52.1582 C.ar    1  ZINC000540473851    0.1000
     18 F18         0.0350    3.8919   51.5844 F       1  ZINC000540473851   -0.1400
     19 C19        -2.2686    3.3496   51.4708 C.ar    1  ZINC000540473851   -0.1500
     20 C20        -7.0419    3.3497   51.1203 C.3     1  ZINC000540473851    0.0400
     21 C21        -8.2581    3.8205   51.9163 C.3     1  ZINC000540473851    0.1200
     22 S22       -10.1817    1.6486   55.8768 S.3     1  ZINC000540473851    0.2800
     23 C23       -10.5054   -0.0038   56.1706 C.2     1  ZINC000540473851    0.0800
     24 C24       -10.7374   -0.5928   57.5079 C.ar    1  ZINC000540473851    0.3800
     25 N25       -10.6826    0.1891   58.5785 N.ar    1  ZINC000540473851   -0.5100
     26 C26       -10.8850   -0.3054   59.7870 C.ar    1  ZINC000540473851    0.1600
     27 C27       -11.1572   -1.6586   59.9278 C.ar    1  ZINC000540473851   -0.2100
     28 C28       -11.2074   -2.4477   58.7876 C.ar    1  ZINC000540473851    0.1500
     29 N29       -11.0008   -1.8895   57.6079 N.ar    1  ZINC000540473851   -0.4700
     30 N30       -10.5253   -0.6709   55.0520 N.2     1  ZINC000540473851   -0.4300
     31 H31       -11.2871   -0.6204   52.1652 H       1  ZINC000540473851    0.0900
     32 H32        -9.5972   -0.1091   51.9391 H       1  ZINC000540473851    0.0800
     33 H33        -9.9581   -1.6859   52.6820 H       1  ZINC000540473851    0.0800
     34 H34        -7.1621    3.2073   54.4871 H       1  ZINC000540473851    0.0900
     35 H35        -7.7893    1.5385   54.4355 H       1  ZINC000540473851    0.0900
     36 H36        -5.4156    1.7444   53.5929 H       1  ZINC000540473851    0.1000
     37 H37        -6.5420    1.0820   52.3834 H       1  ZINC000540473851    0.0400
     38 H38        -4.4823    0.8048   52.1586 H       1  ZINC000540473851    0.0700
     39 H39        -5.3855    0.8469   50.6253 H       1  ZINC000540473851    0.0600
     40 H40        -3.6159    1.0393   50.6215 H       1  ZINC000540473851    0.0600
     41 H41        -4.6691    3.8281   53.7915 H       1  ZINC000540473851    0.1400
     42 H42        -2.7466    4.7545   55.0193 H       1  ZINC000540473851    0.1300
     43 H43        -0.5175    4.7862   53.9751 H       1  ZINC000540473851    0.1300
     44 H44        -2.1352    2.9560   50.4740 H       1  ZINC000540473851    0.1300
     45 H45        -6.7403    4.1286   50.4200 H       1  ZINC000540473851    0.1000
     46 H46        -7.2991    2.4447   50.5700 H       1  ZINC000540473851    0.0400
     47 H47        -9.1145    3.9232   51.2500 H       1  ZINC000540473851    0.1000
     48 H48        -8.0393    4.7792   52.3864 H       1  ZINC000540473851    0.0800
     49 H49       -10.8387    0.3359   60.6547 H       1  ZINC000540473851    0.1800
     50 H50       -11.3262   -2.0887   60.9040 H       1  ZINC000540473851    0.1600
     51 H51       -11.4169   -3.5044   58.8630 H       1  ZINC000540473851    0.1800
@<TRIPOS>BOND
     1     1     2    1
     2     1    31    1
     3     1    32    1
     4     1    33    1
     5     2    30    1
     6     2     3    2
     7     3     4    1
     8     3    22    1
     9     4     5    2
    10     4     6   am
    11     6    21    1
    12     6     7    1
    13     7     8    1
    14     7    34    1
    15     7    35    1
    16     8     9    1
    17     8    36    1
    18     8    37    1
    19     9    10    1
    20     9    20    1
    21    10    11    1
    22    10    12    1
    23    10    13    1
    24    12    38    1
    25    12    39    1
    26    12    40    1
    27    13    19   ar
    28    13    14   ar
    29    14    15   ar
    30    14    41    1
    31    15    16   ar
    32    15    42    1
    33    16    17   ar
    34    16    43    1
    35    17    18    1
    36    17    19   ar
    37    19    44    1
    38    20    21    1
    39    20    45    1
    40    20    46    1
    41    21    47    1
    42    21    48    1
    43    22    23    1
    44    23    24    1
    45    23    30    2
    46    24    29   ar
    47    24    25   ar
    48    25    26   ar
    49    26    27   ar
    50    26    49    1
    51    27    28   ar
    52    27    50    1
    53    28    29   ar
    54    28    51    1
@<TRIPOS>SUBSTRUCTURE
     1 ZINC000540473851        1 TEMP              0 ****  ****    0 ROOT


##########                                Name:    ZINC000646817380
##########                DOCK_Rotatable_Bonds:                   6
##########                         Heavy_Atoms:                  25
##########                    Molecular_Weight:             347.457
##########                DOCK_Rotatable_Bonds:                   6
##########                       Formal_Charge:           0.0199991
##########                     HBond_Acceptors:                   6
##########                        HBond_Donors:                   1
##########                         Heavy_Atoms:                  25
##########                          Grid_Score:          -27.533867
##########                     Grid_vdw_energy:          -27.277081
##########                      Grid_es_energy:           -0.256786
##########           Internal_energy_repulsive:           56.624283

@<TRIPOS>MOLECULE
ZINC000646817380
 54 56 1 0 0
SMALL
USER_CHARGES


@<TRIPOS>ATOM
      1 C1        -15.3228   -3.6011   57.6767 C.3     1  ZINC000646817380   -0.1500
      2 C2        -15.1224   -2.0874   57.7751 C.3     1  ZINC000646817380   -0.0100
      3 C3        -14.1033   -1.7782   58.8736 C.3     1  ZINC000646817380   -0.1500
      4 C4        -14.6157   -1.5610   56.4571 C.2     1  ZINC000646817380   -0.0100
      5 C5        -13.3539   -1.6571   55.9799 C.2     1  ZINC000646817380   -0.2200
      6 C6        -13.4146   -1.0078   54.7179 C.2     1  ZINC000646817380    0.2400
      7 N7        -12.3672   -0.8339   53.8152 N.am    1  ZINC000646817380   -0.6100
      8 C8        -11.1252   -0.5697   54.2669 C.2     1  ZINC000646817380    0.5200
      9 O9        -10.9192   -0.4816   55.4596 O.2     1  ZINC000646817380   -0.4900
     10 C10       -10.0021   -0.3850   53.2995 C.2     1  ZINC000646817380    0.5300
     11 O11        -9.9280   -1.0896   52.3142 O.2     1  ZINC000646817380   -0.5100
     12 N12        -9.0711    0.5640   53.5209 N.am    1  ZINC000646817380   -0.5800
     13 C13        -9.0399    1.4825   54.6683 C.3     1  ZINC000646817380    0.1000
     14 C14        -7.8145    2.4026   54.4855 C.3     1  ZINC000646817380   -0.1300
     15 C15        -7.5467    2.3256   52.9592 C.3     1  ZINC000646817380   -0.1000
     16 H16        -8.1947    3.0118   52.4137 H       1  ZINC000646817380    0.1000
     17 C17        -6.0746    2.6004   52.6461 C.3     1  ZINC000646817380   -0.0700
     18 H18        -5.4481    2.2620   53.4714 H       1  ZINC000646817380    0.0800
     19 C19        -5.6678    1.8799   51.3441 C.3     1  ZINC000646817380   -0.1300
     20 C20        -4.6946    2.8663   50.6521 C.3     1  ZINC000646817380   -0.1300
     21 C21        -5.3295    4.2452   50.9599 C.3     1  ZINC000646817380   -0.1200
     22 C22        -5.8592    4.1045   52.4031 C.3     1  ZINC000646817380   -0.0700
     23 C23        -7.1848    4.8542   52.5502 C.3     1  ZINC000646817380   -0.1600
     24 C24        -4.8321    4.6552   53.3944 C.3     1  ZINC000646817380   -0.1400
     25 C25        -7.9119    0.8487   52.6557 C.3     1  ZINC000646817380    0.0900
     26 N26       -14.6505   -0.6066   54.5730 N.2     1  ZINC000646817380   -0.3800
     27 O27       -15.3292   -0.9111   55.5263 O.3     1  ZINC000646817380    0.1100
     28 H28       -15.6894   -3.9817   58.6300 H       1  ZINC000646817380    0.0700
     29 H29       -16.0488   -3.8213   56.8941 H       1  ZINC000646817380    0.0600
     30 H30       -14.3729   -4.0784   57.4358 H       1  ZINC000646817380    0.0600
     31 H31       -16.0723   -1.6101   58.0160 H       1  ZINC000646817380    0.1100
     32 H32       -13.1534   -2.2555   58.6327 H       1  ZINC000646817380    0.0600
     33 H33       -13.9606   -0.6999   58.9437 H       1  ZINC000646817380    0.0600
     34 H34       -14.4699   -2.1590   59.8269 H       1  ZINC000646817380    0.0700
     35 H35       -12.4985   -2.1198   56.4495 H       1  ZINC000646817380    0.1900
     36 H36       -12.5321   -0.9031   52.8619 H       1  ZINC000646817380    0.4300
     37 H37        -9.9517    2.0794   54.6904 H       1  ZINC000646817380    0.0800
     38 H38        -8.9429    0.9157   55.5943 H       1  ZINC000646817380    0.0800
     39 H39        -8.0511    3.4238   54.7845 H       1  ZINC000646817380    0.0900
     40 H40        -6.9603    2.0234   55.0465 H       1  ZINC000646817380    0.0800
     41 H41        -5.1626    0.9407   51.5696 H       1  ZINC000646817380    0.0700
     42 H42        -6.5416    1.7031   50.7169 H       1  ZINC000646817380    0.0800
     43 H43        -3.6976    2.7944   51.0870 H       1  ZINC000646817380    0.0700
     44 H44        -4.6623    2.6872   49.5774 H       1  ZINC000646817380    0.0700
     45 H45        -4.5773    5.0323   50.9052 H       1  ZINC000646817380    0.0700
     46 H46        -6.1486    4.4505   50.2708 H       1  ZINC000646817380    0.0700
     47 H47        -7.7770    4.7263   51.6440 H       1  ZINC000646817380    0.0700
     48 H48        -7.7347    4.4558   53.4028 H       1  ZINC000646817380    0.0600
     49 H49        -6.9870    5.9143   52.7086 H       1  ZINC000646817380    0.0500
     50 H50        -4.6687    5.7147   53.1974 H       1  ZINC000646817380    0.0600
     51 H51        -5.2039    4.5279   54.4111 H       1  ZINC000646817380    0.0500
     52 H52        -3.8920    4.1154   53.2811 H       1  ZINC000646817380    0.0600
     53 H53        -7.0770    0.1930   52.9031 H       1  ZINC000646817380    0.0900
     54 H54        -8.1877    0.7339   51.6075 H       1  ZINC000646817380    0.1000
@<TRIPOS>BOND
     1     1     2    1
     2     1    28    1
     3     1    29    1
     4     1    30    1
     5     2     3    1
     6     2     4    1
     7     2    31    1
     8     3    32    1
     9     3    33    1
    10     3    34    1
    11     4    27    1
    12     4     5    2
    13     5     6    1
    14     5    35    1
    15     6     7    1
    16     6    26    2
    17     7     8   am
    18     7    36    1
    19     8     9    2
    20     8    10    1
    21    10    11    2
    22    10    12   am
    23    12    25    1
    24    12    13    1
    25    13    14    1
    26    13    37    1
    27    13    38    1
    28    14    15    1
    29    14    39    1
    30    14    40    1
    31    15    16    1
    32    15    17    1
    33    15    25    1
    34    17    18    1
    35    17    22    1
    36    17    19    1
    37    19    20    1
    38    19    41    1
    39    19    42    1
    40    20    21    1
    41    20    43    1
    42    20    44    1
    43    21    22    1
    44    21    45    1
    45    21    46    1
    46    22    23    1
    47    22    24    1
    48    23    47    1
    49    23    48    1
    50    23    49    1
    51    24    50    1
    52    24    51    1
    53    24    52    1
    54    25    53    1
    55    25    54    1
    56    26    27    1
@<TRIPOS>SUBSTRUCTURE
     1 ZINC000646817380        1 TEMP              0 ****  ****    0 ROOT


##########                                Name:    ZINC000080099940
##########                DOCK_Rotatable_Bonds:                   4
##########                         Heavy_Atoms:                  26
##########                    Molecular_Weight:             343.388
##########                DOCK_Rotatable_Bonds:                   4
##########                       Formal_Charge:        -3.42727e-07
##########                     HBond_Acceptors:                   6
##########                        HBond_Donors:                   1
##########                         Heavy_Atoms:                  26
##########                          Grid_Score:          -27.515066
##########                     Grid_vdw_energy:          -27.124449
##########                      Grid_es_energy:           -0.390617
##########           Internal_energy_repulsive:            2.220404

@<TRIPOS>MOLECULE
ZINC000080099940
 43 46 1 0 0
SMALL
USER_CHARGES


@<TRIPOS>ATOM
      1 C1          2.2107    2.1672   48.9506 C.3     1  ZINC000080099940   -0.1100
      2 C2          1.0272    2.2731   49.8776 C.2     1  ZINC000080099940   -0.0700
      3 C3         -0.2111    1.9092   49.4489 C.2     1  ZINC000080099940   -0.0900
      4 C4         -1.3065    2.0152   50.3304 C.2     1  ZINC000080099940    0.2300
      5 N5         -2.5940    1.7391   50.1844 N.2     1  ZINC000080099940   -0.4800
      6 C6         -3.2356    2.0153   51.3309 C.2     1  ZINC000080099940    0.1000
      7 C7         -4.6885    1.8425   51.5771 C.ar    1  ZINC000080099940   -0.0200
      8 C8         -5.4752    2.9431   51.9128 C.ar    1  ZINC000080099940   -0.0800
      9 C9         -6.8252    2.7803   52.1407 C.ar    1  ZINC000080099940   -0.1200
     10 C10        -7.4016    1.5198   52.0364 C.ar    1  ZINC000080099940    0.1500
     11 N11        -8.7702    1.3570   52.2684 N.am    1  ZINC000080099940   -0.6500
     12 C12        -9.2384    1.3078   53.5312 C.2     1  ZINC000080099940    0.5700
     13 O13        -8.4709    1.4047   54.4680 O.2     1  ZINC000080099940   -0.5000
     14 C14       -10.6916    1.1350   53.7775 C.ar    1  ZINC000080099940    0.1300
     15 C15       -11.2107    1.2482   55.0677 C.ar    1  ZINC000080099940   -0.1700
     16 C16       -12.5769    1.0782   55.2436 C.ar    1  ZINC000080099940    0.1600
     17 N17       -13.3339    0.8169   54.1920 N.ar    1  ZINC000080099940   -0.5000
     18 C18       -12.8106    0.7164   52.9853 C.ar    1  ZINC000080099940    0.3200
     19 C19       -13.7156    0.4172   51.8180 C.3     1  ZINC000080099940   -0.0900
     20 N20       -11.5225    0.8748   52.7704 N.ar    1  ZINC000080099940   -0.5000
     21 C21        -6.6190    0.4211   51.7014 C.ar    1  ZINC000080099940   -0.1400
     22 C22        -5.2696    0.5803   51.4675 C.ar    1  ZINC000080099940   -0.0700
     23 C23        -2.3237    2.4808   52.2298 C.2     1  ZINC000080099940   -0.0900
     24 N24        -1.1081    2.4824   51.6044 N.pl3   1  ZINC000080099940   -0.3600
     25 C25         0.1406    2.8441   52.0213 C.2     1  ZINC000080099940    0.0600
     26 C26         1.1992    2.7425   51.1904 C.2     1  ZINC000080099940   -0.1400
     27 H27         3.1102    2.4970   49.4706 H       1  ZINC000080099940    0.0700
     28 H28         2.3330    1.1314   48.6343 H       1  ZINC000080099940    0.0800
     29 H29         2.0449    2.7969   48.0764 H       1  ZINC000080099940    0.0800
     30 H30        -0.3542    1.5431   48.4429 H       1  ZINC000080099940    0.1500
     31 H31        -5.0277    3.9225   51.9945 H       1  ZINC000080099940    0.1300
     32 H32        -7.4352    3.6328   52.4007 H       1  ZINC000080099940    0.1400
     33 H33        -9.3830    1.2797   51.5205 H       1  ZINC000080099940    0.4200
     34 H34       -10.5662    1.4622   55.9074 H       1  ZINC000080099940    0.1600
     35 H35       -13.0158    1.1580   56.2272 H       1  ZINC000080099940    0.1800
     36 H36       -14.0781    1.3520   51.3903 H       1  ZINC000080099940    0.0900
     37 H37       -13.1612   -0.1378   51.0614 H       1  ZINC000080099940    0.0900
     38 H38       -14.5624   -0.1790   52.1584 H       1  ZINC000080099940    0.0900
     39 H39        -7.0689   -0.5574   51.6209 H       1  ZINC000080099940    0.1300
     40 H40        -4.6620   -0.2737   51.2068 H       1  ZINC000080099940    0.1400
     41 H41        -2.5236    2.7905   53.2449 H       1  ZINC000080099940    0.1900
     42 H42         0.2833    3.2105   53.0271 H       1  ZINC000080099940    0.1700
     43 H43         2.1815    3.0318   51.5335 H       1  ZINC000080099940    0.1500
@<TRIPOS>BOND
     1     1     2    1
     2     1    27    1
     3     1    28    1
     4     1    29    1
     5     2    26    1
     6     2     3    2
     7     3     4    1
     8     3    30    1
     9     4    24    1
    10     4     5    2
    11     5     6    1
    12     6     7    1
    13     6    23    2
    14     7    22   ar
    15     7     8   ar
    16     8     9   ar
    17     8    31    1
    18     9    10   ar
    19     9    32    1
    20    10    11    1
    21    10    21   ar
    22    11    12   am
    23    11    33    1
    24    12    13    2
    25    12    14    1
    26    14    20   ar
    27    14    15   ar
    28    15    16   ar
    29    15    34    1
    30    16    17   ar
    31    16    35    1
    32    17    18   ar
    33    18    19    1
    34    18    20   ar
    35    19    36    1
    36    19    37    1
    37    19    38    1
    38    21    22   ar
    39    21    39    1
    40    22    40    1
    41    23    24    1
    42    23    41    1
    43    24    25    1
    44    25    26    2
    45    25    42    1
    46    26    43    1
@<TRIPOS>SUBSTRUCTURE
     1 ZINC000080099940        1 TEMP              0 ****  ****    0 ROOT


##########                                Name:    ZINC001002468398
##########                DOCK_Rotatable_Bonds:                   7
##########                         Heavy_Atoms:                  24
##########                    Molecular_Weight:             341.358
##########                DOCK_Rotatable_Bonds:                   7
##########                       Formal_Charge:           0.0100001
##########                     HBond_Acceptors:                   8
##########                        HBond_Donors:                   0
##########                         Heavy_Atoms:                  24
##########                          Grid_Score:          -27.496691
##########                     Grid_vdw_energy:          -27.065287
##########                      Grid_es_energy:           -0.431404
##########           Internal_energy_repulsive:           35.207676

@<TRIPOS>MOLECULE
ZINC001002468398
 45 47 1 0 0
SMALL
USER_CHARGES


@<TRIPOS>ATOM
      1 C1         -9.0781    5.0041   49.3363 C.3     1  ZINC001002468398   -0.1400
      2 C2         -8.7283    5.1518   50.8184 C.3     1  ZINC001002468398   -0.0500
      3 C3         -8.7036    3.7916   51.4666 C.2     1  ZINC001002468398    0.0500
      4 C4         -7.6264    2.9674   51.5790 C.2     1  ZINC001002468398   -0.0800
      5 C5         -6.2625    3.2370   51.0892 C.2     1  ZINC001002468398    0.6000
      6 O6         -6.0230    4.2709   50.4953 O.2     1  ZINC001002468398   -0.5300
      7 N7         -5.2808    2.3378   51.2995 N.am    1  ZINC001002468398   -0.6000
      8 C8         -5.5694    1.0924   52.0149 C.3     1  ZINC001002468398    0.0900
      9 C9         -3.9253    2.6058   50.8128 C.3     1  ZINC001002468398    0.1000
     10 C10        -2.9800    2.7753   52.0038 C.3     1  ZINC001002468398    0.1300
     11 H11        -2.8629    1.8237   52.5223 H       1  ZINC001002468398    0.0800
     12 C12        -3.5424    3.8358   52.9736 C.3     1  ZINC001002468398   -0.1300
     13 C13        -2.2694    4.5907   53.4393 C.3     1  ZINC001002468398   -0.1300
     14 C14        -1.4092    4.5742   52.1512 C.3     1  ZINC001002468398    0.1000
     15 N15        -1.6705    3.2554   51.5386 N.am    1  ZINC001002468398   -0.6100
     16 C16        -0.8464    2.6046   50.6937 C.2     1  ZINC001002468398    0.5600
     17 O17        -1.1649    1.5218   50.2497 O.2     1  ZINC001002468398   -0.5100
     18 C18         0.4708    3.2224   50.3006 C.3     1  ZINC001002468398   -0.2000
     19 H19         0.5517    4.2976   50.4597 H       1  ZINC001002468398    0.1500
     20 C20         1.1952    2.6307   49.0899 C.3     1  ZINC001002468398   -0.1500
     21 C21         1.7332    2.3816   50.5011 C.3     1  ZINC001002468398    0.2300
     22 F22         2.9033    3.0517   50.8740 F       1  ZINC001002468398   -0.1500
     23 F23         1.5765    1.0979   51.0349 F       1  ZINC001002468398   -0.1400
     24 N24        -8.0454    1.8478   52.2291 N.2     1  ZINC001002468398   -0.4600
     25 C25        -9.3094    1.9778   52.5004 C.2     1  ZINC001002468398    0.1700
     26 O26        -9.7385    3.1646   52.0483 O.3     1  ZINC001002468398   -0.2000
     27 H27        -8.3291    4.3819   48.8464 H       1  ZINC001002468398    0.0600
     28 H28       -10.0583    4.5374   49.2390 H       1  ZINC001002468398    0.0600
     29 H29        -9.0960    5.9880   48.8674 H       1  ZINC001002468398    0.0700
     30 H30        -7.7482    5.6186   50.9157 H       1  ZINC001002468398    0.1200
     31 H31        -9.4773    5.7740   51.3082 H       1  ZINC001002468398    0.0900
     32 H32        -6.2872    0.5034   51.4440 H       1  ZINC001002468398    0.0700
     33 H33        -4.6484    0.5225   52.1383 H       1  ZINC001002468398    0.0700
     34 H34        -5.9870    1.3244   52.9946 H       1  ZINC001002468398    0.0700
     35 H35        -3.5886    1.7714   50.1975 H       1  ZINC001002468398    0.0900
     36 H36        -3.9269    3.5189   50.2174 H       1  ZINC001002468398    0.0900
     37 H37        -4.2228    4.5109   52.4545 H       1  ZINC001002468398    0.1000
     38 H38        -4.0398    3.3602   53.8189 H       1  ZINC001002468398    0.0800
     39 H39        -2.5077    5.6118   53.7370 H       1  ZINC001002468398    0.0900
     40 H40        -1.7719    4.0557   54.2483 H       1  ZINC001002468398    0.0800
     41 H41        -1.7181    5.3743   51.4784 H       1  ZINC001002468398    0.0800
     42 H42        -0.3524    4.6729   52.3994 H       1  ZINC001002468398    0.0800
     43 H43         0.7191    1.7946   48.5775 H       1  ZINC001002468398    0.1300
     44 H44         1.7532    3.3167   48.4525 H       1  ZINC001002468398    0.1400
     45 H45        -9.9172    1.2470   53.0131 H       1  ZINC001002468398    0.2600
@<TRIPOS>BOND
     1     1     2    1
     2     1    27    1
     3     1    28    1
     4     1    29    1
     5     2     3    1
     6     2    30    1
     7     2    31    1
     8     3    26    1
     9     3     4    2
    10     4     5    1
    11     4    24    1
    12     5     6    2
    13     5     7   am
    14     7     8    1
    15     7     9    1
    16     8    32    1
    17     8    33    1
    18     8    34    1
    19     9    10    1
    20     9    35    1
    21     9    36    1
    22    10    11    1
    23    10    15    1
    24    10    12    1
    25    12    13    1
    26    12    37    1
    27    12    38    1
    28    13    14    1
    29    13    39    1
    30    13    40    1
    31    14    15    1
    32    14    41    1
    33    14    42    1
    34    15    16   am
    35    16    17    2
    36    16    18    1
    37    18    19    1
    38    18    21    1
    39    18    20    1
    40    20    21    1
    41    20    43    1
    42    20    44    1
    43    21    22    1
    44    21    23    1
    45    24    25    2
    46    25    26    1
    47    25    45    1
@<TRIPOS>SUBSTRUCTURE
     1 ZINC001002468398        1 TEMP              0 ****  ****    0 ROOT


##########                                Name:    ZINC000863208514
##########                DOCK_Rotatable_Bonds:                   6
##########                         Heavy_Atoms:                  19
##########                    Molecular_Weight:             368.657
##########                DOCK_Rotatable_Bonds:                   6
##########                       Formal_Charge:           0.0100005
##########                     HBond_Acceptors:                   7
##########                        HBond_Donors:                   2
##########                         Heavy_Atoms:                  19
##########                          Grid_Score:          -27.448315
##########                     Grid_vdw_energy:          -26.617758
##########                      Grid_es_energy:           -0.830556
##########           Internal_energy_repulsive:            7.089133

@<TRIPOS>MOLECULE
ZINC000863208514
 31 31 1 0 0
SMALL
USER_CHARGES


@<TRIPOS>ATOM
      1 C1          0.6359    2.5715   50.7543 C.3     1  ZINC000863208514    0.0900
      2 N2         -0.7407    2.2671   50.3559 N.am    1  ZINC000863208514   -0.6100
      3 C3         -1.0141    1.7219   49.0239 C.3     1  ZINC000863208514    0.0700
      4 C4         -1.7555    2.4888   51.2147 C.2     1  ZINC000863208514    0.5100
      5 O5         -1.5292    2.9417   52.3168 O.2     1  ZINC000863208514   -0.5400
      6 C6         -3.1713    2.1741   50.8054 C.3     1  ZINC000863208514    0.1100
      7 N7         -3.9988    2.0024   52.0021 N.am    1  ZINC000863208514   -0.6600
      8 C8         -5.3410    1.9502   51.8915 C.2     1  ZINC000863208514    0.5600
      9 S9         -6.0790    2.0866   50.3528 S.2     1  ZINC000863208514   -0.6000
     10 N10        -6.1022    1.7908   52.9922 N.am    1  ZINC000863208514   -0.6300
     11 C11        -7.4969    1.7366   52.8773 C.ar    1  ZINC000863208514    0.1200
     12 C12        -8.1484    0.5115   52.8903 C.ar    1  ZINC000863208514   -0.0300
     13 C13        -9.5256    0.4606   52.7770 C.ar    1  ZINC000863208514   -0.0200
     14 Cl14      -10.3410   -1.0718   52.7939 Cl      1  ZINC000863208514   -0.0300
     15 C15       -10.2549    1.6304   52.6508 C.ar    1  ZINC000863208514   -0.0600
     16 Br16      -12.1382    1.5563   52.4963 Br      1  ZINC000863208514   -0.0100
     17 C17        -9.6086    2.8539   52.6380 C.ar    1  ZINC000863208514   -0.1100
     18 C18        -8.2322    2.9109   52.7556 C.ar    1  ZINC000863208514    0.1100
     19 F19        -7.6014    4.1055   52.7430 F       1  ZINC000863208514   -0.1200
     20 H20         1.3132    2.3285   49.9357 H       1  ZINC000863208514    0.0800
     21 H21         0.7192    3.6319   50.9923 H       1  ZINC000863208514    0.0700
     22 H22         0.8994    1.9805   51.6315 H       1  ZINC000863208514    0.0700
     23 H23        -0.9779    0.6331   49.0626 H       1  ZINC000863208514    0.0700
     24 H24        -2.0036    2.0411   48.6968 H       1  ZINC000863208514    0.0800
     25 H25        -0.2643    2.0856   48.3215 H       1  ZINC000863208514    0.0800
     26 H26        -3.5665    2.9933   50.2048 H       1  ZINC000863208514    0.1200
     27 H27        -3.1844    1.2549   50.2198 H       1  ZINC000863208514    0.1200
     28 H28        -3.5807    1.9265   52.8741 H       1  ZINC000863208514    0.4100
     29 H29        -5.6840    1.7136   53.8641 H       1  ZINC000863208514    0.4200
     30 H30        -7.5802   -0.4017   52.9884 H       1  ZINC000863208514    0.1800
     31 H31       -10.1800    3.7651   52.5393 H       1  ZINC000863208514    0.1600
@<TRIPOS>BOND
     1     1     2    1
     2     1    20    1
     3     1    21    1
     4     1    22    1
     5     2     3    1
     6     2     4   am
     7     3    23    1
     8     3    24    1
     9     3    25    1
    10     4     5    2
    11     4     6    1
    12     6     7    1
    13     6    26    1
    14     6    27    1
    15     7     8   am
    16     7    28    1
    17     8     9    2
    18     8    10   am
    19    10    11    1
    20    10    29    1
    21    11    18   ar
    22    11    12   ar
    23    12    13   ar
    24    12    30    1
    25    13    14    1
    26    13    15   ar
    27    15    16    1
    28    15    17   ar
    29    17    18   ar
    30    17    31    1
    31    18    19    1
@<TRIPOS>SUBSTRUCTURE
     1 ZINC000863208514        1 TEMP              0 ****  ****    0 ROOT


##########                                Name:    ZINC000446721380
##########                DOCK_Rotatable_Bonds:                   8
##########                         Heavy_Atoms:                  26
##########                    Molecular_Weight:             419.318
##########                DOCK_Rotatable_Bonds:                   8
##########                       Formal_Charge:           0.0199992
##########                     HBond_Acceptors:                   5
##########                        HBond_Donors:                   2
##########                         Heavy_Atoms:                  26
##########                          Grid_Score:          -27.421423
##########                     Grid_vdw_energy:          -26.420212
##########                      Grid_es_energy:           -1.001211
##########           Internal_energy_repulsive:          164.692322

@<TRIPOS>MOLECULE
ZINC000446721380
 49 51 1 0 0
SMALL
USER_CHARGES


@<TRIPOS>ATOM
      1 C1         -0.1469    1.9234   49.9533 C.3     1  ZINC000446721380   -0.1200
      2 C2         -1.1678    2.6784   50.7649 C.ar    1  ZINC000446721380   -0.0300
      3 C3         -0.7741    3.3827   51.8874 C.ar    1  ZINC000446721380   -0.1600
      4 C4         -1.7086    4.0766   52.6342 C.ar    1  ZINC000446721380   -0.0500
      5 C5         -3.0381    4.0675   52.2601 C.ar    1  ZINC000446721380   -0.1500
      6 C6         -4.0558    4.8243   53.0741 C.3     1  ZINC000446721380    0.1900
      7 N7         -4.6108    3.9426   54.1039 N.am    1  ZINC000446721380   -0.7300
      8 C8         -5.1059    4.4654   55.2433 C.2     1  ZINC000446721380    0.7100
      9 O9         -5.0933    5.6689   55.4157 O.2     1  ZINC000446721380   -0.5700
     10 N10        -5.6150    3.6541   56.1914 N.am    1  ZINC000446721380   -0.6900
     11 C11        -6.1292    4.1971   57.3749 C.ar    1  ZINC000446721380    0.2000
     12 C12        -6.1197    5.5712   57.5712 C.ar    1  ZINC000446721380   -0.1200
     13 C13        -6.6284    6.1042   58.7400 C.ar    1  ZINC000446721380   -0.0800
     14 C14        -7.1466    5.2708   59.7138 C.ar    1  ZINC000446721380   -0.1300
     15 C15        -7.1575    3.9012   59.5220 C.ar    1  ZINC000446721380   -0.0700
     16 C16        -6.6556    3.3621   58.3530 C.ar    1  ZINC000446721380   -0.1300
     17 Br17       -6.6712    1.4894   58.0910 Br      1  ZINC000446721380   -0.0500
     18 C18        -3.4358    3.3614   51.1337 C.ar    1  ZINC000446721380    0.1500
     19 O19        -4.7433    3.3513   50.7632 O.3     1  ZINC000446721380   -0.3100
     20 C20        -5.3054    2.0883   50.4018 C.3     1  ZINC000446721380    0.0700
     21 C21        -5.3945    1.1961   51.6417 C.3     1  ZINC000446721380   -0.1200
     22 H22        -4.4345    1.1636   52.1568 H       1  ZINC000446721380    0.1000
     23 C23        -5.8482   -0.2314   51.2505 C.3     1  ZINC000446721380   -0.1500
     24 C24        -6.8275   -0.5867   52.3982 C.3     1  ZINC000446721380    0.0500
     25 O25        -7.4964    0.6638   52.6693 O.3     1  ZINC000446721380   -0.3800
     26 C26        -6.4990    1.7002   52.5906 C.3     1  ZINC000446721380    0.0500
     27 C27        -2.4957    2.6708   50.3832 C.ar    1  ZINC000446721380   -0.2100
     28 H28         0.2599    2.5773   49.1820 H       1  ZINC000446721380    0.0800
     29 H29         0.6586    1.5861   50.6058 H       1  ZINC000446721380    0.0700
     30 H30        -0.6208    1.0605   49.4853 H       1  ZINC000446721380    0.0700
     31 H31         0.2649    3.3907   52.1819 H       1  ZINC000446721380    0.1300
     32 H32        -1.3985    4.6257   53.5110 H       1  ZINC000446721380    0.1300
     33 H33        -3.5772    5.6810   53.5486 H       1  ZINC000446721380    0.0800
     34 H34        -4.8575    5.1711   52.4220 H       1  ZINC000446721380    0.0800
     35 H35        -4.6220    2.9825   53.9659 H       1  ZINC000446721380    0.4000
     36 H36        -5.6251    2.6939   56.0539 H       1  ZINC000446721380    0.4100
     37 H37        -5.7148    6.2230   56.8113 H       1  ZINC000446721380    0.1500
     38 H38        -6.6207    7.1733   58.8933 H       1  ZINC000446721380    0.1300
     39 H39        -7.5435    5.6902   60.6265 H       1  ZINC000446721380    0.1300
     40 H40        -7.5623    3.2528   60.2849 H       1  ZINC000446721380    0.1400
     41 H41        -6.3035    2.2392   49.9904 H       1  ZINC000446721380    0.0700
     42 H42        -4.6729    1.6095   49.6543 H       1  ZINC000446721380    0.0700
     43 H43        -6.3613   -0.2267   50.2888 H       1  ZINC000446721380    0.0800
     44 H44        -5.0018   -0.9180   51.2349 H       1  ZINC000446721380    0.0900
     45 H45        -7.5428   -1.3419   52.0724 H       1  ZINC000446721380    0.1000
     46 H46        -6.2809   -0.9281   53.2772 H       1  ZINC000446721380    0.0600
     47 H47        -6.0833    1.8905   53.5801 H       1  ZINC000446721380    0.0600
     48 H48        -6.9429    2.6121   52.1912 H       1  ZINC000446721380    0.0900
     49 H49        -2.8028    2.1205   49.5061 H       1  ZINC000446721380    0.1300
@<TRIPOS>BOND
     1     1     2    1
     2     1    28    1
     3     1    29    1
     4     1    30    1
     5     2    27   ar
     6     2     3   ar
     7     3     4   ar
     8     3    31    1
     9     4     5   ar
    10     4    32    1
    11     5     6    1
    12     5    18   ar
    13     6     7    1
    14     6    33    1
    15     6    34    1
    16     7     8   am
    17     7    35    1
    18     8     9    2
    19     8    10   am
    20    10    11    1
    21    10    36    1
    22    11    16   ar
    23    11    12   ar
    24    12    13   ar
    25    12    37    1
    26    13    14   ar
    27    13    38    1
    28    14    15   ar
    29    14    39    1
    30    15    16   ar
    31    15    40    1
    32    16    17    1
    33    18    19    1
    34    18    27   ar
    35    19    20    1
    36    20    21    1
    37    20    41    1
    38    20    42    1
    39    21    22    1
    40    21    26    1
    41    21    23    1
    42    23    24    1
    43    23    43    1
    44    23    44    1
    45    24    25    1
    46    24    45    1
    47    24    46    1
    48    25    26    1
    49    26    47    1
    50    26    48    1
    51    27    49    1
@<TRIPOS>SUBSTRUCTURE
     1 ZINC000446721380        1 TEMP              0 ****  ****    0 ROOT


##########                                Name:    ZINC001098311495
##########                DOCK_Rotatable_Bonds:                   8
##########                         Heavy_Atoms:                  24
##########                    Molecular_Weight:             328.454
##########                DOCK_Rotatable_Bonds:                   8
##########                       Formal_Charge:          0.00999987
##########                     HBond_Acceptors:                   4
##########                        HBond_Donors:                   1
##########                         Heavy_Atoms:                  24
##########                          Grid_Score:          -27.417427
##########                     Grid_vdw_energy:          -27.330580
##########                      Grid_es_energy:           -0.086847
##########           Internal_energy_repulsive:           25.307768

@<TRIPOS>MOLECULE
ZINC001098311495
 52 54 1 0 0
SMALL
USER_CHARGES


@<TRIPOS>ATOM
      1 C1        -11.3852   -0.8562   56.2445 C.3     1  ZINC001098311495   -0.1500
      2 C2        -10.4927   -0.0458   57.1867 C.3     1  ZINC001098311495    0.0500
      3 O3         -9.6626    0.8297   56.4209 O.3     1  ZINC001098311495   -0.2800
      4 C4         -8.8045    1.6234   57.1094 C.ar    1  ZINC001098311495    0.1900
      5 C5         -8.7931    1.5990   58.4958 C.ar    1  ZINC001098311495   -0.2200
      6 C6         -7.9235    2.4124   59.1954 C.ar    1  ZINC001098311495   -0.0500
      7 C7         -7.0531    3.2521   58.5202 C.ar    1  ZINC001098311495   -0.1700
      8 C8         -7.0467    3.2847   57.1424 C.ar    1  ZINC001098311495   -0.0500
      9 C9         -7.9212    2.4677   56.4224 C.ar    1  ZINC001098311495   -0.1800
     10 C10        -7.9195    2.4975   54.9472 C.2     1  ZINC001098311495    0.5600
     11 O11        -8.9718    2.5241   54.3386 O.2     1  ZINC001098311495   -0.5200
     12 N12        -6.7517    2.4951   54.2745 N.am    1  ZINC001098311495   -0.7200
     13 C13        -6.7501    2.5265   52.8098 C.3     1  ZINC001098311495    0.1600
     14 H14        -7.6545    3.0069   52.4365 H       1  ZINC001098311495    0.1000
     15 C15        -6.6113    1.0958   52.2342 C.3     1  ZINC001098311495   -0.1200
     16 C16        -5.2767    1.1539   51.4315 C.3     1  ZINC001098311495    0.0500
     17 H17        -4.7996    0.1925   51.2413 H       1  ZINC001098311495    0.1100
     18 C18        -5.5806    2.0158   50.1690 C.3     1  ZINC001098311495   -0.1500
     19 C19        -5.7141    3.4510   50.7342 C.3     1  ZINC001098311495   -0.1500
     20 C20        -5.4807    3.2579   52.2781 C.3     1  ZINC001098311495    0.0400
     21 H21        -5.1782    4.1523   52.8227 H       1  ZINC001098311495    0.1200
     22 N22        -4.4833    2.1289   52.2618 N.3     1  ZINC001098311495   -0.4900
     23 C23        -3.2494    2.5266   51.5710 C.3     1  ZINC001098311495    0.0600
     24 C24        -2.4905    3.5098   52.4244 C.2     1  ZINC001098311495   -0.1600
     25 C25        -1.2383    3.7829   52.1529 C.2     1  ZINC001098311495   -0.1200
     26 C26        -0.4793    4.7661   53.0063 C.3     1  ZINC001098311495   -0.1200
     27 C27        -0.5569    3.1137   50.9872 C.3     1  ZINC001098311495   -0.1200
     28 H28       -12.0105   -0.1782   55.6637 H       1  ZINC001098311495    0.0700
     29 H29       -10.7623   -1.4437   55.5700 H       1  ZINC001098311495    0.0700
     30 H30       -12.0184   -1.5239   56.8286 H       1  ZINC001098311495    0.0800
     31 H31        -9.8674   -0.7237   57.7675 H       1  ZINC001098311495    0.0600
     32 H32       -11.1155    0.5418   57.8613 H       1  ZINC001098311495    0.0600
     33 H33        -9.4684    0.9466   59.0293 H       1  ZINC001098311495    0.1300
     34 H34        -7.9217    2.3933   60.2751 H       1  ZINC001098311495    0.1300
     35 H35        -6.3763    3.8841   59.0761 H       1  ZINC001098311495    0.1300
     36 H36        -6.3666    3.9413   56.6201 H       1  ZINC001098311495    0.1300
     37 H37        -5.9123    2.4727   54.7601 H       1  ZINC001098311495    0.4000
     38 H38        -7.4469    0.8654   51.5732 H       1  ZINC001098311495    0.0800
     39 H39        -6.5438    0.3634   53.0385 H       1  ZINC001098311495    0.0800
     40 H40        -4.7566    1.9585   49.4578 H       1  ZINC001098311495    0.0700
     41 H41        -6.5136    1.6984   49.7032 H       1  ZINC001098311495    0.0800
     42 H42        -4.9562    4.1053   50.3032 H       1  ZINC001098311495    0.0700
     43 H43        -6.7133    3.8452   50.5486 H       1  ZINC001098311495    0.0800
     44 H44        -3.5004    2.9912   50.6174 H       1  ZINC001098311495    0.0500
     45 H45        -2.6317    1.6459   51.3947 H       1  ZINC001098311495    0.0800
     46 H46        -2.9788    3.9895   53.2598 H       1  ZINC001098311495    0.1100
     47 H47        -0.5968    5.7693   52.5966 H       1  ZINC001098311495    0.0700
     48 H48         0.5774    4.4990   53.0158 H       1  ZINC001098311495    0.0600
     49 H49        -0.8696    4.7411   54.0237 H       1  ZINC001098311495    0.0600
     50 H50        -0.1689    2.1445   51.3006 H       1  ZINC001098311495    0.0700
     51 H51        -1.2742    2.9736   50.1785 H       1  ZINC001098311495    0.0600
     52 H52         0.2654    3.7390   50.6392 H       1  ZINC001098311495    0.0600
@<TRIPOS>BOND
     1     1     2    1
     2     1    28    1
     3     1    29    1
     4     1    30    1
     5     2     3    1
     6     2    31    1
     7     2    32    1
     8     3     4    1
     9     4     9   ar
    10     4     5   ar
    11     5     6   ar
    12     5    33    1
    13     6     7   ar
    14     6    34    1
    15     7     8   ar
    16     7    35    1
    17     8     9   ar
    18     8    36    1
    19     9    10    1
    20    10    11    2
    21    10    12   am
    22    12    13    1
    23    12    37    1
    24    13    14    1
    25    13    20    1
    26    13    15    1
    27    15    16    1
    28    15    38    1
    29    15    39    1
    30    16    17    1
    31    16    22    1
    32    16    18    1
    33    18    19    1
    34    18    40    1
    35    18    41    1
    36    19    20    1
    37    19    42    1
    38    19    43    1
    39    20    21    1
    40    20    22    1
    41    22    23    1
    42    23    24    1
    43    23    44    1
    44    23    45    1
    45    24    25    2
    46    24    46    1
    47    25    26    1
    48    25    27    1
    49    26    47    1
    50    26    48    1
    51    26    49    1
    52    27    50    1
    53    27    51    1
    54    27    52    1
@<TRIPOS>SUBSTRUCTURE
     1 ZINC001098311495        1 TEMP              0 ****  ****    0 ROOT


##########                                Name:    ZINC001013196242
##########                DOCK_Rotatable_Bonds:                   5
##########                         Heavy_Atoms:                  24
##########                    Molecular_Weight:              349.86
##########                DOCK_Rotatable_Bonds:                   5
##########                       Formal_Charge:        -3.05474e-07
##########                     HBond_Acceptors:                   6
##########                        HBond_Donors:                   1
##########                         Heavy_Atoms:                  24
##########                          Grid_Score:          -27.377369
##########                     Grid_vdw_energy:          -26.580687
##########                      Grid_es_energy:           -0.796681
##########           Internal_energy_repulsive:           15.817126

@<TRIPOS>MOLECULE
ZINC001013196242
 48 51 1 0 0
SMALL
USER_CHARGES


@<TRIPOS>ATOM
      1 C1         -5.2642    3.4346   50.7258 C.3     1  ZINC001013196242   -0.1600
      2 C2         -5.3860    2.3107   51.7568 C.3     1  ZINC001013196242    0.1400
      3 H3         -4.5612    1.6081   51.6383 H       1  ZINC001013196242    0.0800
      4 C4         -6.7312    1.5762   51.5760 C.3     1  ZINC001013196242   -0.1400
      5 C5         -7.1670    1.2849   53.0364 C.3     1  ZINC001013196242    0.1300
      6 H6         -6.6810    0.3868   53.4173 H       1  ZINC001013196242    0.1100
      7 N7         -8.6242    1.1731   53.1371 N.am    1  ZINC001013196242   -0.7200
      8 C8         -9.2279   -0.0071   52.8938 C.2     1  ZINC001013196242    0.5400
      9 O9         -8.5646   -0.9769   52.5931 O.2     1  ZINC001013196242   -0.5200
     10 C10       -10.7270   -0.1217   52.9957 C.3     1  ZINC001013196242   -0.1400
     11 C11       -11.2019   -0.9142   54.2264 C.3     1  ZINC001013196242   -0.0800
     12 C12       -11.2096    0.4208   54.9789 C.3     1  ZINC001013196242   -0.1600
     13 C13       -11.8617    0.7549   56.3159 C.3     1  ZINC001013196242   -0.1700
     14 C14       -10.3422    0.8541   56.1556 C.3     1  ZINC001013196242   -0.1400
     15 C15       -11.3977    1.1125   53.6244 C.3     1  ZINC001013196242   -0.0800
     16 C16        -6.6540    2.5482   53.7719 C.3     1  ZINC001013196242    0.0800
     17 N17        -5.3716    2.8742   53.1146 N.am    1  ZINC001013196242   -0.6000
     18 C18        -4.3606    3.5726   53.6682 C.2     1  ZINC001013196242    0.6100
     19 O19        -3.3461    3.7841   53.0300 O.2     1  ZINC001013196242   -0.5400
     20 C20        -4.4830    4.0779   55.0396 C.2     1  ZINC001013196242   -0.0400
     21 C21        -5.6044    4.6528   55.5992 C.2     1  ZINC001013196242   -0.1400
     22 C22        -5.2808    4.9861   56.9187 C.2     1  ZINC001013196242   -0.1200
     23 Cl23       -6.3383    5.7384   58.0717 Cl      1  ZINC001013196242   -0.0400
     24 C24        -3.9953    4.6169   57.1372 C.2     1  ZINC001013196242    0.0400
     25 N25        -3.5011    4.0590   56.0041 N.pl3   1  ZINC001013196242   -0.4000
     26 C26        -2.1451    3.5315   55.8326 C.3     1  ZINC001013196242    0.0700
     27 H27        -4.3148    3.9522   50.8630 H       1  ZINC001013196242    0.0700
     28 H28        -5.3062    3.0126   49.7216 H       1  ZINC001013196242    0.0700
     29 H29        -6.0848    4.1397   50.8582 H       1  ZINC001013196242    0.0600
     30 H30        -7.4573    2.2185   51.0778 H       1  ZINC001013196242    0.0900
     31 H31        -6.5922    0.6476   51.0226 H       1  ZINC001013196242    0.0900
     32 H32        -9.1546    1.9484   53.3789 H       1  ZINC001013196242    0.4000
     33 H33       -11.1911   -0.4426   52.0630 H       1  ZINC001013196242    0.1000
     34 H34       -12.1918   -1.3548   54.1074 H       1  ZINC001013196242    0.1000
     35 H35       -10.4637   -1.6231   54.6012 H       1  ZINC001013196242    0.0700
     36 H36       -12.4228    1.6869   56.3835 H       1  ZINC001013196242    0.1000
     37 H37       -12.2527   -0.0736   56.9064 H       1  ZINC001013196242    0.0900
     38 H38        -9.7338    0.0907   56.6406 H       1  ZINC001013196242    0.0900
     39 H39        -9.9039    1.8514   56.1176 H       1  ZINC001013196242    0.1000
     40 H40       -10.8165    2.0283   53.5167 H       1  ZINC001013196242    0.0800
     41 H41       -12.4421    1.2360   53.3378 H       1  ZINC001013196242    0.0900
     42 H42        -7.3614    3.3690   53.6543 H       1  ZINC001013196242    0.0800
     43 H43        -6.4934    2.3330   54.8283 H       1  ZINC001013196242    0.1000
     44 H44        -6.5537    4.8157   55.1106 H       1  ZINC001013196242    0.1600
     45 H45        -3.4542    4.7428   58.0633 H       1  ZINC001013196242    0.1800
     46 H46        -2.1487    2.4558   56.0089 H       1  ZINC001013196242    0.0800
     47 H47        -1.8029    3.7320   54.8173 H       1  ZINC001013196242    0.1000
     48 H48        -1.4749    4.0140   56.5439 H       1  ZINC001013196242    0.0900
@<TRIPOS>BOND
     1     1     2    1
     2     1    27    1
     3     1    28    1
     4     1    29    1
     5     2     3    1
     6     2    17    1
     7     2     4    1
     8     4     5    1
     9     4    30    1
    10     4    31    1
    11     5     6    1
    12     5     7    1
    13     5    16    1
    14     7     8   am
    15     7    32    1
    16     8     9    2
    17     8    10    1
    18    10    15    1
    19    10    11    1
    20    10    33    1
    21    11    12    1
    22    11    34    1
    23    11    35    1
    24    12    14    1
    25    12    13    1
    26    12    15    1
    27    13    14    1
    28    13    36    1
    29    13    37    1
    30    14    38    1
    31    14    39    1
    32    15    40    1
    33    15    41    1
    34    16    17    1
    35    16    42    1
    36    16    43    1
    37    17    18   am
    38    18    19    2
    39    18    20    1
    40    20    25    1
    41    20    21    2
    42    21    22    1
    43    21    44    1
    44    22    23    1
    45    22    24    2
    46    24    25    1
    47    24    45    1
    48    25    26    1
    49    26    46    1
    50    26    47    1
    51    26    48    1
@<TRIPOS>SUBSTRUCTURE
     1 ZINC001013196242        1 TEMP              0 ****  ****    0 ROOT


##########                                Name:    ZINC000098105561
##########                DOCK_Rotatable_Bonds:                   5
##########                         Heavy_Atoms:                  25
##########                    Molecular_Weight:             368.336
##########                DOCK_Rotatable_Bonds:                   5
##########                       Formal_Charge:         2.98023e-08
##########                     HBond_Acceptors:                   9
##########                        HBond_Donors:                   0
##########                         Heavy_Atoms:                  25
##########                          Grid_Score:          -27.376322
##########                     Grid_vdw_energy:          -27.116674
##########                      Grid_es_energy:           -0.259648
##########           Internal_energy_repulsive:            9.430579

@<TRIPOS>MOLECULE
ZINC000098105561
 36 38 1 0 0
SMALL
USER_CHARGES


@<TRIPOS>ATOM
      1 C1         -9.5558    4.9020   49.2347 C.3     1  ZINC000098105561   -0.0800
      2 C2         -8.8427    4.4486   50.4823 C.2     1  ZINC000098105561    0.0900
      3 C3         -9.4395    4.3947   51.6753 C.2     1  ZINC000098105561   -0.2700
      4 S4         -8.2606    3.8166   52.8500 S.3     1  ZINC000098105561    0.1600
      5 C5         -7.0769    3.7032   51.6217 C.2     1  ZINC000098105561    0.2500
      6 N6         -5.7700    3.2772   51.8139 N.am    1  ZINC000098105561   -0.5200
      7 C7         -5.5073    1.9467   52.3679 C.3     1  ZINC000098105561    0.0500
      8 C8         -6.0674    0.8814   51.4234 C.3     1  ZINC000098105561    0.4400
      9 F9         -5.4396   -0.3430   51.6767 F       1  ZINC000098105561   -0.1700
     10 F10        -7.4447    0.7510   51.6317 F       1  ZINC000098105561   -0.1700
     11 F11        -5.8302    1.2617   50.0982 F       1  ZINC000098105561   -0.1700
     12 C12        -4.7426    4.0876   51.4910 C.2     1  ZINC000098105561    0.5800
     13 O13        -4.9606    5.1913   51.0315 O.2     1  ZINC000098105561   -0.4100
     14 C14        -3.3481    3.6331   51.6961 C.2     1  ZINC000098105561    0.0800
     15 C15        -2.7021    4.0098   52.8272 C.2     1  ZINC000098105561   -0.2000
     16 C16        -1.3101    3.5668   53.0147 C.2     1  ZINC000098105561    0.4200
     17 O17        -0.7392    3.6680   54.0864 O.2     1  ZINC000098105561   -0.4300
     18 C18        -0.6476    2.9924   51.8264 C.ar    1  ZINC000098105561   -0.2200
     19 C19         0.7279    2.7734   51.7940 C.ar    1  ZINC000098105561   -0.0300
     20 C20         1.3037    2.2408   50.6611 C.ar    1  ZINC000098105561   -0.1400
     21 C21         0.5191    1.9259   49.5607 C.ar    1  ZINC000098105561   -0.0500
     22 C22        -0.8428    2.1359   49.5817 C.ar    1  ZINC000098105561   -0.1400
     23 C23        -1.4468    2.6689   50.7157 C.ar    1  ZINC000098105561    0.1400
     24 O24        -2.7799    2.8624   50.7587 O.3     1  ZINC000098105561   -0.2300
     25 N25        -7.5794    4.0677   50.4832 N.2     1  ZINC000098105561   -0.4600
     26 H26       -10.0192    4.0433   48.7487 H       1  ZINC000098105561    0.0800
     27 H27       -10.3244    5.6283   49.4990 H       1  ZINC000098105561    0.0800
     28 H28        -8.8398    5.3621   48.5537 H       1  ZINC000098105561    0.0800
     29 H29       -10.4654    4.6595   51.8839 H       1  ZINC000098105561    0.1900
     30 H30        -4.4322    1.8051   52.4786 H       1  ZINC000098105561    0.1700
     31 H31        -5.9878    1.8574   53.3422 H       1  ZINC000098105561    0.1400
     32 H32        -3.1949    4.6186   53.5706 H       1  ZINC000098105561    0.1800
     33 H33         1.3383    3.0197   52.6502 H       1  ZINC000098105561    0.1400
     34 H34         2.3694    2.0682   50.6293 H       1  ZINC000098105561    0.1400
     35 H35         0.9813    1.5117   48.6769 H       1  ZINC000098105561    0.1400
     36 H36        -1.4412    1.8862   48.7179 H       1  ZINC000098105561    0.1400
@<TRIPOS>BOND
     1     1     2    1
     2     1    26    1
     3     1    27    1
     4     1    28    1
     5     2    25    1
     6     2     3    2
     7     3     4    1
     8     3    29    1
     9     4     5    1
    10     5     6    1
    11     5    25    2
    12     6     7    1
    13     6    12   am
    14     7     8    1
    15     7    30    1
    16     7    31    1
    17     8     9    1
    18     8    10    1
    19     8    11    1
    20    12    13    2
    21    12    14    1
    22    14    24    1
    23    14    15    2
    24    15    16    1
    25    15    32    1
    26    16    17    2
    27    16    18    1
    28    18    23   ar
    29    18    19   ar
    30    19    20   ar
    31    19    33    1
    32    20    21   ar
    33    20    34    1
    34    21    22   ar
    35    21    35    1
    36    22    23   ar
    37    22    36    1
    38    23    24    1
@<TRIPOS>SUBSTRUCTURE
     1 ZINC000098105561        1 TEMP              0 ****  ****    0 ROOT


##########                                Name:    ZINC000560467340
##########                DOCK_Rotatable_Bonds:                   7
##########                         Heavy_Atoms:                  24
##########                    Molecular_Weight:             369.481
##########                DOCK_Rotatable_Bonds:                   7
##########                       Formal_Charge:          -0.0199997
##########                     HBond_Acceptors:                   7
##########                        HBond_Donors:                   2
##########                         Heavy_Atoms:                  24
##########                          Grid_Score:          -27.344130
##########                     Grid_vdw_energy:          -26.901014
##########                      Grid_es_energy:           -0.443115
##########           Internal_energy_repulsive:           18.555832

@<TRIPOS>MOLECULE
ZINC000560467340
 44 46 1 0 0
SMALL
USER_CHARGES


@<TRIPOS>ATOM
      1 O1         -9.0545    6.8162   51.7485 O.2     1  ZINC000560467340   -0.9600
      2 S2         -8.6163    5.8415   50.8119 S.o2    1  ZINC000560467340    2.7100
      3 O3         -7.9310    6.1702   49.6112 O.2     1  ZINC000560467340   -0.9500
      4 N4         -7.6303    4.8034   51.6440 N.am    1  ZINC000560467340   -1.0900
      5 C5         -7.1227    3.5939   50.9915 C.3     1  ZINC000560467340    0.1400
      6 C6         -5.9421    3.0399   51.7916 C.3     1  ZINC000560467340   -0.0500
      7 C7         -6.4018    2.6411   53.1953 C.3     1  ZINC000560467340   -0.0700
      8 C8         -7.6596    1.8168   53.0966 C.ar    1  ZINC000560467340   -0.0900
      9 C9         -8.8957    2.4304   53.1785 C.ar    1  ZINC000560467340   -0.0900
     10 C10       -10.0498    1.6756   53.0882 C.ar    1  ZINC000560467340   -0.1500
     11 C11        -9.9677    0.3043   52.9153 C.ar    1  ZINC000560467340    0.1000
     12 F12       -11.0952   -0.4345   52.8264 F       1  ZINC000560467340   -0.1400
     13 C13        -8.7291   -0.3091   52.8330 C.ar    1  ZINC000560467340   -0.1500
     14 C14        -7.5764    0.4484   52.9187 C.ar    1  ZINC000560467340   -0.0900
     15 C15        -4.8222    4.0971   51.8816 C.3     1  ZINC000560467340   -0.1300
     16 C16        -3.5140    3.2740   51.7814 C.3     1  ZINC000560467340   -0.1200
     17 C17        -3.8756    2.1822   50.7440 C.3     1  ZINC000560467340   -0.1600
     18 C18        -5.3402    1.8225   51.0682 C.3     1  ZINC000560467340    0.1100
     19 H19        -5.3748    0.9477   51.7176 H       1  ZINC000560467340    0.0600
     20 O20        -6.0597    1.5642   49.8609 O.3     1  ZINC000560467340   -0.5500
     21 C21       -10.0476    4.9314   50.3347 C.2     1  ZINC000560467340   -0.6900
     22 C22       -11.1126    4.8017   51.1272 C.2     1  ZINC000560467340   -0.1000
     23 S23       -12.3361    3.8319   50.3173 S.3     1  ZINC000560467340    0.1500
     24 C24       -11.3019    3.6518   48.9061 C.2     1  ZINC000560467340   -0.2200
     25 C25       -10.1545    4.3017   49.1066 C.2     1  ZINC000560467340   -0.0700
     26 H26        -7.3888    4.9962   52.5634 H       1  ZINC000560467340    0.4200
     27 H27        -7.9142    2.8459   50.9467 H       1  ZINC000560467340    0.0600
     28 H28        -6.7947    3.8368   49.9808 H       1  ZINC000560467340    0.0800
     29 H29        -5.6209    2.0557   53.6807 H       1  ZINC000560467340    0.0800
     30 H30        -6.6005    3.5384   53.7812 H       1  ZINC000560467340    0.0800
     31 H31        -8.9594    3.5001   53.3133 H       1  ZINC000560467340    0.1300
     32 H32       -11.0153    2.1551   53.1528 H       1  ZINC000560467340    0.1400
     33 H33        -8.6638   -1.3788   52.6985 H       1  ZINC000560467340    0.1400
     34 H34        -6.6101   -0.0299   52.8543 H       1  ZINC000560467340    0.1300
     35 H35        -4.8945    4.8009   51.0523 H       1  ZINC000560467340    0.0700
     36 H36        -4.8699    4.6232   52.8350 H       1  ZINC000560467340    0.0800
     37 H37        -2.6940    3.8943   51.4196 H       1  ZINC000560467340    0.0700
     38 H38        -3.2651    2.8256   52.7432 H       1  ZINC000560467340    0.0700
     39 H39        -3.7950    2.5768   49.7311 H       1  ZINC000560467340    0.0800
     40 H40        -3.2324    1.3108   50.8672 H       1  ZINC000560467340    0.0700
     41 H41        -5.6573    0.8866   49.3006 H       1  ZINC000560467340    0.3800
     42 H42       -11.2089    5.2269   52.1153 H       1  ZINC000560467340    0.1800
     43 H43       -11.5586    3.1029   48.0121 H       1  ZINC000560467340    0.1700
     44 H44        -9.3652    4.3279   48.3697 H       1  ZINC000560467340    0.1500
@<TRIPOS>BOND
     1     1     2    2
     2     2     3    2
     3     2     4   am
     4     2    21    1
     5     4     5    1
     6     4    26    1
     7     5     6    1
     8     5    27    1
     9     5    28    1
    10     6    18    1
    11     6     7    1
    12     6    15    1
    13     7     8    1
    14     7    29    1
    15     7    30    1
    16     8    14   ar
    17     8     9   ar
    18     9    10   ar
    19     9    31    1
    20    10    11   ar
    21    10    32    1
    22    11    12    1
    23    11    13   ar
    24    13    14   ar
    25    13    33    1
    26    14    34    1
    27    15    16    1
    28    15    35    1
    29    15    36    1
    30    16    17    1
    31    16    37    1
    32    16    38    1
    33    17    18    1
    34    17    39    1
    35    17    40    1
    36    18    19    1
    37    18    20    1
    38    20    41    1
    39    21    25    1
    40    21    22    2
    41    22    23    1
    42    22    42    1
    43    23    24    1
    44    24    25    2
    45    24    43    1
    46    25    44    1
@<TRIPOS>SUBSTRUCTURE
     1 ZINC000560467340        1 TEMP              0 ****  ****    0 ROOT


##########                                Name:    ZINC000939075213
##########                DOCK_Rotatable_Bonds:                   7
##########                         Heavy_Atoms:                  24
##########                    Molecular_Weight:             327.426
##########                DOCK_Rotatable_Bonds:                   7
##########                       Formal_Charge:          -0.0200002
##########                     HBond_Acceptors:                   5
##########                        HBond_Donors:                   2
##########                         Heavy_Atoms:                  24
##########                          Grid_Score:          -27.340851
##########                     Grid_vdw_energy:          -27.116915
##########                      Grid_es_energy:           -0.223937
##########           Internal_energy_repulsive:            8.883345

@<TRIPOS>MOLECULE
ZINC000939075213
 49 51 1 0 0
SMALL
USER_CHARGES


@<TRIPOS>ATOM
      1 C1         -2.5384    4.6327   55.0052 C.3     1  ZINC000939075213   -0.1400
      2 C2         -1.8015    3.6450   54.0984 C.3     1  ZINC000939075213   -0.1100
      3 H3         -1.8463    2.6352   54.5062 H       1  ZINC000939075213    0.0900
      4 C4         -0.3345    4.0877   53.8715 C.3     1  ZINC000939075213    0.1100
      5 N5          0.0500    3.4757   52.5867 N.am    1  ZINC000939075213   -0.6200
      6 C6          1.3085    3.1897   52.1983 C.2     1  ZINC000939075213    0.5600
      7 O7          2.2450    3.4402   52.9353 O.2     1  ZINC000939075213   -0.5400
      8 C8          1.5417    2.5984   50.9338 C.2     1  ZINC000939075213   -0.2600
      9 C9          2.8118    2.3930   50.5053 C.2     1  ZINC000939075213    0.0400
     10 C10         3.0456    1.8010   49.2396 C.2     1  ZINC000939075213    0.0000
     11 C11         2.0809    1.3636   48.3507 C.2     1  ZINC000939075213   -0.1500
     12 C12         2.7517    0.8519   47.2360 C.2     1  ZINC000939075213   -0.2200
     13 C13         4.0827    0.9811   47.4550 C.2     1  ZINC000939075213    0.0200
     14 N14         4.2747    1.5617   48.6671 N.pl3   1  ZINC000939075213   -0.5000
     15 C15        -1.1669    3.2281   51.7995 C.3     1  ZINC000939075213    0.0900
     16 C16        -2.3675    3.6872   52.6543 C.3     1  ZINC000939075213    0.1400
     17 H17        -2.6658    4.7010   52.3872 H       1  ZINC000939075213    0.1100
     18 N18        -3.4933    2.7615   52.5062 N.am    1  ZINC000939075213   -0.7200
     19 C19        -4.4826    3.0379   51.6337 C.2     1  ZINC000939075213    0.5300
     20 O20        -4.4416    4.0536   50.9721 O.2     1  ZINC000939075213   -0.5300
     21 C21        -5.6398    2.0848   51.4800 C.3     1  ZINC000939075213   -0.0600
     22 C22        -6.1765    2.1262   50.0479 C.3     1  ZINC000939075213   -0.1300
     23 C23        -5.2177    0.6809   51.8462 C.2     1  ZINC000939075213   -0.1700
     24 C24        -6.1114    0.1036   52.6023 C.2     1  ZINC000939075213   -0.1400
     25 C25        -7.2785    1.0261   52.8664 C.3     1  ZINC000939075213   -0.1100
     26 C26        -6.7615    2.4329   52.4858 C.3     1  ZINC000939075213   -0.1100
     27 H27        -3.5864    4.3430   55.0823 H       1  ZINC000939075213    0.0600
     28 H28        -2.0851    4.6236   55.9965 H       1  ZINC000939075213    0.0700
     29 H29        -2.4688    5.6352   54.5831 H       1  ZINC000939075213    0.0600
     30 H30        -0.2716    5.1741   53.8082 H       1  ZINC000939075213    0.0700
     31 H31         0.3023    3.7162   54.6744 H       1  ZINC000939075213    0.0800
     32 H32         0.7082    2.3107   50.3103 H       1  ZINC000939075213    0.1300
     33 H33         3.6454    2.6807   51.1290 H       1  ZINC000939075213    0.1500
     34 H34         1.0111    1.4082   48.4913 H       1  ZINC000939075213    0.1400
     35 H35         2.2907    0.4284   46.3560 H       1  ZINC000939075213    0.1400
     36 H36         4.8636    0.6753   46.7745 H       1  ZINC000939075213    0.1600
     37 H37         5.1346    1.7681   49.0657 H       1  ZINC000939075213    0.4100
     38 H38        -1.1312    3.8000   50.8722 H       1  ZINC000939075213    0.0800
     39 H39        -1.2552    2.1644   51.5784 H       1  ZINC000939075213    0.0700
     40 H40        -3.5267    1.9497   53.0361 H       1  ZINC000939075213    0.4000
     41 H41        -5.3819    1.8515   49.3540 H       1  ZINC000939075213    0.0600
     42 H42        -7.0038    1.4235   49.9494 H       1  ZINC000939075213    0.0700
     43 H43        -6.5258    3.1332   49.8197 H       1  ZINC000939075213    0.0600
     44 H44        -4.2976    0.2161   51.5243 H       1  ZINC000939075213    0.1300
     45 H45        -6.0279   -0.9017   52.9880 H       1  ZINC000939075213    0.1300
     46 H46        -8.1284    0.7520   52.2412 H       1  ZINC000939075213    0.0800
     47 H47        -7.5557    0.9957   53.9201 H       1  ZINC000939075213    0.0800
     48 H48        -6.3594    2.9508   53.3567 H       1  ZINC000939075213    0.0900
     49 H49        -7.5451    3.0222   52.0096 H       1  ZINC000939075213    0.0800
@<TRIPOS>BOND
     1     1     2    1
     2     1    27    1
     3     1    28    1
     4     1    29    1
     5     2     3    1
     6     2    16    1
     7     2     4    1
     8     4     5    1
     9     4    30    1
    10     4    31    1
    11     5     6   am
    12     5    15    1
    13     6     7    2
    14     6     8    1
    15     8     9    2
    16     8    32    1
    17     9    10    1
    18     9    33    1
    19    10    14    1
    20    10    11    2
    21    11    12    1
    22    11    34    1
    23    12    13    2
    24    12    35    1
    25    13    14    1
    26    13    36    1
    27    14    37    1
    28    15    16    1
    29    15    38    1
    30    15    39    1
    31    16    17    1
    32    16    18    1
    33    18    19   am
    34    18    40    1
    35    19    20    2
    36    19    21    1
    37    21    26    1
    38    21    22    1
    39    21    23    1
    40    22    41    1
    41    22    42    1
    42    22    43    1
    43    23    24    2
    44    23    44    1
    45    24    25    1
    46    24    45    1
    47    25    26    1
    48    25    46    1
    49    25    47    1
    50    26    48    1
    51    26    49    1
@<TRIPOS>SUBSTRUCTURE
     1 ZINC000939075213        1 TEMP              0 ****  ****    0 ROOT


##########                                Name:    ZINC000444205493
##########                DOCK_Rotatable_Bonds:                   4
##########                         Heavy_Atoms:                  24
##########                    Molecular_Weight:             415.351
##########                DOCK_Rotatable_Bonds:                   4
##########                       Formal_Charge:         -0.00999995
##########                     HBond_Acceptors:                   6
##########                        HBond_Donors:                   1
##########                         Heavy_Atoms:                  24
##########                          Grid_Score:          -27.312588
##########                     Grid_vdw_energy:          -27.369137
##########                      Grid_es_energy:            0.056549
##########           Internal_energy_repulsive:            8.313302

@<TRIPOS>MOLECULE
ZINC000444205493
 47 49 1 0 0
SMALL
USER_CHARGES


@<TRIPOS>ATOM
      1 C1        -14.8712   -1.6509   48.3386 C.3     1  ZINC000444205493   -0.1700
      2 C2        -13.8961   -0.5495   48.6655 C.2     1  ZINC000444205493    0.5100
      3 O3        -12.7731   -0.5782   48.2082 O.2     1  ZINC000444205493   -0.5100
      4 N4        -14.2718    0.4675   49.4662 N.am    1  ZINC000444205493   -0.6800
      5 C5        -13.3661    1.4905   49.7698 C.ar    1  ZINC000444205493    0.2300
      6 C6        -12.6191    2.0807   48.7596 C.ar    1  ZINC000444205493   -0.1400
      7 C7        -11.7263    3.0906   49.0624 C.ar    1  ZINC000444205493    0.0200
      8 C8        -11.5757    3.5136   50.3700 C.ar    1  ZINC000444205493   -0.6900
      9 S9        -10.4354    4.8015   50.7515 S.o2    1  ZINC000444205493    2.7100
     10 O10       -10.0980    5.4176   49.5163 O.2     1  ZINC000444205493   -0.9500
     11 O11       -10.9876    5.5139   51.8502 O.2     1  ZINC000444205493   -0.9500
     12 N12        -9.0518    4.0822   51.3086 N.am    1  ZINC000444205493   -1.0100
     13 C13        -8.9531    3.2093   52.4937 C.3     1  ZINC000444205493    0.1200
     14 C14        -7.6961    2.3358   52.2438 C.3     1  ZINC000444205493   -0.1200
     15 C15        -6.7650    3.3354   51.5307 C.3     1  ZINC000444205493   -0.0700
     16 C16        -5.9818    4.1727   52.5472 C.3     1  ZINC000444205493   -0.1100
     17 C17        -4.5983    3.4745   52.6189 C.3     1  ZINC000444205493   -0.1200
     18 C18        -4.3552    3.0377   51.1518 C.3     1  ZINC000444205493   -0.1000
     19 H19        -3.9762    3.8730   50.5630 H       1  ZINC000444205493    0.0700
     20 C20        -3.3794    1.8605   51.0985 C.3     1  ZINC000444205493   -0.1500
     21 C21        -5.7516    2.6095   50.6466 C.3     1  ZINC000444205493   -0.1100
     22 C22        -7.7162    4.2023   50.6992 C.3     1  ZINC000444205493    0.1300
     23 C23       -12.3185    2.9284   51.3792 C.ar    1  ZINC000444205493    0.0300
     24 C24       -13.2169    1.9216   51.0826 C.ar    1  ZINC000444205493   -0.1500
     25 Br25      -14.2323    1.1217   52.4629 Br      1  ZINC000444205493   -0.0300
     26 H26       -14.3916   -2.3782   47.6835 H       1  ZINC000444205493    0.1000
     27 H27       -15.1857   -2.1428   49.2591 H       1  ZINC000444205493    0.1000
     28 H28       -15.7417   -1.2284   47.8367 H       1  ZINC000444205493    0.1000
     29 H29       -15.1699    0.4904   49.8320 H       1  ZINC000444205493    0.4200
     30 H30       -12.7355    1.7505   47.7379 H       1  ZINC000444205493    0.1600
     31 H31       -11.1450    3.5500   48.2766 H       1  ZINC000444205493    0.1500
     32 H32        -8.8255    3.8079   53.3957 H       1  ZINC000444205493    0.0800
     33 H33        -9.8403    2.5816   52.5769 H       1  ZINC000444205493    0.0800
     34 H34        -7.2608    1.9988   53.1847 H       1  ZINC000444205493    0.0900
     35 H35        -7.9298    1.4897   51.5977 H       1  ZINC000444205493    0.0800
     36 H36        -5.8746    5.1989   52.1957 H       1  ZINC000444205493    0.0700
     37 H37        -6.4724    4.1501   53.5203 H       1  ZINC000444205493    0.0700
     38 H38        -3.8293    4.1745   52.9455 H       1  ZINC000444205493    0.0700
     39 H39        -4.6375    2.6074   53.2781 H       1  ZINC000444205493    0.0700
     40 H40        -3.7821    1.0283   51.6759 H       1  ZINC000444205493    0.0500
     41 H41        -3.2403    1.5504   50.0628 H       1  ZINC000444205493    0.0500
     42 H42        -2.4205    2.1640   51.5187 H       1  ZINC000444205493    0.0500
     43 H43        -5.8719    1.5307   50.7465 H       1  ZINC000444205493    0.0700
     44 H44        -5.8813    2.9069   49.6060 H       1  ZINC000444205493    0.0700
     45 H45        -7.7381    3.8475   49.6689 H       1  ZINC000444205493    0.0700
     46 H46        -7.3923    5.2427   50.7279 H       1  ZINC000444205493    0.0800
     47 H47       -12.1988    3.2613   52.3996 H       1  ZINC000444205493    0.1500
@<TRIPOS>BOND
     1     1     2    1
     2     1    26    1
     3     1    27    1
     4     1    28    1
     5     2     3    2
     6     2     4   am
     7     4     5    1
     8     4    29    1
     9     5    24   ar
    10     5     6   ar
    11     6     7   ar
    12     6    30    1
    13     7     8   ar
    14     7    31    1
    15     8     9    1
    16     8    23   ar
    17     9    10    2
    18     9    11    2
    19     9    12   am
    20    12    22    1
    21    12    13    1
    22    13    14    1
    23    13    32    1
    24    13    33    1
    25    14    15    1
    26    14    34    1
    27    14    35    1
    28    15    21    1
    29    15    16    1
    30    15    22    1
    31    16    17    1
    32    16    36    1
    33    16    37    1
    34    17    18    1
    35    17    38    1
    36    17    39    1
    37    18    19    1
    38    18    20    1
    39    18    21    1
    40    20    40    1
    41    20    41    1
    42    20    42    1
    43    21    43    1
    44    21    44    1
    45    22    45    1
    46    22    46    1
    47    23    24   ar
    48    23    47    1
    49    24    25    1
@<TRIPOS>SUBSTRUCTURE
     1 ZINC000444205493        1 TEMP              0 ****  ****    0 ROOT


##########                                Name:    ZINC001053433946
##########                DOCK_Rotatable_Bonds:                   6
##########                         Heavy_Atoms:                  24
##########                    Molecular_Weight:             337.419
##########                DOCK_Rotatable_Bonds:                   6
##########                       Formal_Charge:               -0.02
##########                     HBond_Acceptors:                   7
##########                        HBond_Donors:                   2
##########                         Heavy_Atoms:                  24
##########                          Grid_Score:          -27.310190
##########                     Grid_vdw_energy:          -25.498394
##########                      Grid_es_energy:           -1.811795
##########           Internal_energy_repulsive:           18.752569

@<TRIPOS>MOLECULE
ZINC001053433946
 51 54 1 0 0
SMALL
USER_CHARGES


@<TRIPOS>ATOM
      1 N1         -3.2221    1.2050   51.1653 N.am    1  ZINC001053433946   -0.8300
      2 C2         -2.3729    1.9839   50.4662 C.2     1  ZINC001053433946    0.5600
      3 O3         -2.1012    1.7059   49.3173 O.2     1  ZINC001053433946   -0.5500
      4 C4         -1.7610    3.2002   51.1120 C.3     1  ZINC001053433946   -0.1600
      5 H5         -0.7902    3.5028   50.7194 H       1  ZINC001053433946    0.1400
      6 C6         -2.0154    3.4103   52.6060 C.3     1  ZINC001053433946   -0.1300
      7 C7         -2.7105    4.3060   51.5775 C.3     1  ZINC001053433946   -0.1700
      8 H8         -2.3644    5.3359   51.4916 H       1  ZINC001053433946    0.1400
      9 C9         -4.1862    4.0956   51.3560 C.2     1  ZINC001053433946    0.5400
     10 O10        -4.5813    3.6226   50.3115 O.2     1  ZINC001053433946   -0.5200
     11 N11        -5.0670    4.4332   52.3188 N.am    1  ZINC001053433946   -0.6100
     12 C12        -4.6134    5.0088   53.5945 C.3     1  ZINC001053433946    0.0700
     13 C13        -5.2214    4.1980   54.7437 C.3     1  ZINC001053433946    0.0500
     14 O14        -6.6426    4.1432   54.5851 O.3     1  ZINC001053433946   -0.3400
     15 C15        -7.0664    3.5354   53.3680 C.3     1  ZINC001053433946    0.0800
     16 C16        -6.8837    2.0120   53.3412 C.3     1  ZINC001053433946   -0.0100
     17 N17        -8.2635    1.9402   53.8733 N.3     1  ZINC001053433946   -0.4700
     18 C18        -9.0325    0.8841   53.2014 C.3     1  ZINC001053433946    0.0200
     19 C19       -10.1068    0.3522   54.1521 C.3     1  ZINC001053433946   -0.1200
     20 H20        -9.6461    0.0615   55.0962 H       1  ZINC001053433946    0.0800
     21 C21       -11.1509    1.4436   54.4067 C.3     1  ZINC001053433946   -0.1200
     22 C22       -12.2609    0.8754   55.2963 C.3     1  ZINC001053433946   -0.1600
     23 C23       -12.8638   -0.3591   54.6207 C.3     1  ZINC001053433946    0.0600
     24 O24       -11.8343   -1.3217   54.3846 O.3     1  ZINC001053433946   -0.3800
     25 C25       -10.7918   -0.8631   53.5215 C.3     1  ZINC001053433946    0.0700
     26 C26        -8.5762    3.2696   53.3016 C.3     1  ZINC001053433946    0.0200
     27 C27        -6.5151    4.2432   52.1245 C.3     1  ZINC001053433946    0.1000
     28 H28        -3.6150    0.4214   50.7499 H       1  ZINC001053433946    0.4000
     29 H29        -3.4372    1.4257   52.0850 H       1  ZINC001053433946    0.4000
     30 H30        -2.6254    2.6686   53.1218 H       1  ZINC001053433946    0.1100
     31 H31        -1.2121    3.8514   53.1961 H       1  ZINC001053433946    0.1200
     32 H32        -3.5257    4.9627   53.6502 H       1  ZINC001053433946    0.1000
     33 H33        -4.9416    6.0458   53.6649 H       1  ZINC001053433946    0.0800
     34 H34        -4.8147    3.1868   54.7306 H       1  ZINC001053433946    0.0600
     35 H35        -4.9796    4.6753   55.6934 H       1  ZINC001053433946    0.1100
     36 H36        -6.7775    1.5995   52.3379 H       1  ZINC001053433946    0.0800
     37 H37        -6.1257    1.6479   54.0349 H       1  ZINC001053433946    0.0900
     38 H38        -9.5069    1.2921   52.3088 H       1  ZINC001053433946    0.0500
     39 H39        -8.3633    0.0718   52.9181 H       1  ZINC001053433946    0.0800
     40 H40       -10.6796    2.2894   54.9073 H       1  ZINC001053433946    0.0700
     41 H41       -11.5757    1.7704   53.4576 H       1  ZINC001053433946    0.0700
     42 H42       -11.8446    0.5945   56.2637 H       1  ZINC001053433946    0.0700
     43 H43       -13.0362    1.6285   55.4372 H       1  ZINC001053433946    0.0700
     44 H44       -13.6252   -0.7927   55.2690 H       1  ZINC001053433946    0.0900
     45 H45       -13.3157   -0.0701   53.6719 H       1  ZINC001053433946    0.0500
     46 H46       -11.2156   -0.5802   52.5579 H       1  ZINC001053433946    0.0500
     47 H47       -10.0618   -1.6597   53.3780 H       1  ZINC001053433946    0.1000
     48 H48        -9.1640    3.9055   53.9635 H       1  ZINC001053433946    0.1000
     49 H49        -8.9712    3.2297   52.2864 H       1  ZINC001053433946    0.0900
     50 H50        -7.0063    5.2086   52.0021 H       1  ZINC001053433946    0.0800
     51 H51        -6.6885    3.6267   51.2425 H       1  ZINC001053433946    0.1000
@<TRIPOS>BOND
     1     1     2   am
     2     1    28    1
     3     1    29    1
     4     2     3    2
     5     2     4    1
     6     4     5    1
     7     4     7    1
     8     4     6    1
     9     6     7    1
    10     6    30    1
    11     6    31    1
    12     7     8    1
    13     7     9    1
    14     9    10    2
    15     9    11   am
    16    11    27    1
    17    11    12    1
    18    12    13    1
    19    12    32    1
    20    12    33    1
    21    13    14    1
    22    13    34    1
    23    13    35    1
    24    14    15    1
    25    15    26    1
    26    15    16    1
    27    15    27    1
    28    16    17    1
    29    16    36    1
    30    16    37    1
    31    17    18    1
    32    17    26    1
    33    18    19    1
    34    18    38    1
    35    18    39    1
    36    19    20    1
    37    19    25    1
    38    19    21    1
    39    21    22    1
    40    21    40    1
    41    21    41    1
    42    22    23    1
    43    22    42    1
    44    22    43    1
    45    23    24    1
    46    23    44    1
    47    23    45    1
    48    24    25    1
    49    25    46    1
    50    25    47    1
    51    26    48    1
    52    26    49    1
    53    27    50    1
    54    27    51    1
@<TRIPOS>SUBSTRUCTURE
     1 ZINC001053433946        1 TEMP              0 ****  ****    0 ROOT


##########                                Name:    ZINC001456096501
##########                DOCK_Rotatable_Bonds:                   7
##########                         Heavy_Atoms:                  24
##########                    Molecular_Weight:             333.431
##########                DOCK_Rotatable_Bonds:                   7
##########                       Formal_Charge:          -0.0200003
##########                     HBond_Acceptors:                   6
##########                        HBond_Donors:                   0
##########                         Heavy_Atoms:                  24
##########                          Grid_Score:          -27.261213
##########                     Grid_vdw_energy:          -26.969488
##########                      Grid_es_energy:           -0.291724
##########           Internal_energy_repulsive:          147.411896

@<TRIPOS>MOLECULE
ZINC001456096501
 51 52 1 0 0
SMALL
USER_CHARGES


@<TRIPOS>ATOM
      1 C1         -6.1131   -0.4605   51.6649 C.3     1  ZINC001456096501    0.0400
      2 O2         -5.2193    0.5746   52.0792 O.3     1  ZINC001456096501   -0.2900
      3 C3         -5.5962    1.8504   51.8255 C.ar    1  ZINC001456096501    0.3700
      4 N4         -6.8441    2.2241   52.0516 N.ar    1  ZINC001456096501   -0.5400
      5 C5         -7.2537    3.4563   51.8192 C.ar    1  ZINC001456096501    0.1600
      6 C6         -6.3899    4.4170   51.3254 C.ar    1  ZINC001456096501   -0.2200
      7 C7         -5.0720    4.0807   51.0703 C.ar    1  ZINC001456096501   -0.0200
      8 C8         -4.6587    2.7691   51.3296 C.ar    1  ZINC001456096501   -0.2000
      9 C9         -3.2649    2.3568   51.0763 C.2     1  ZINC001456096501    0.5900
     10 O10        -3.0308    1.4464   50.3053 O.2     1  ZINC001456096501   -0.5100
     11 N11        -2.2513    2.9896   51.6998 N.am    1  ZINC001456096501   -0.6200
     12 C12        -2.3913    4.1011   52.6519 C.3     1  ZINC001456096501    0.1000
     13 C13        -0.9691    4.5169   53.0831 C.3     1  ZINC001456096501   -0.1200
     14 C14        -0.0861    3.9924   51.9202 C.3     1  ZINC001456096501   -0.1200
     15 H15        -0.0822    4.6934   51.0856 H       1  ZINC001456096501    0.0900
     16 C16         1.3387    3.7067   52.3994 C.3     1  ZINC001456096501    0.1200
     17 N17         2.0936    3.0560   51.3256 N.am    1  ZINC001456096501   -0.6200
     18 C18         2.4533    1.6403   51.4369 C.3     1  ZINC001456096501    0.0600
     19 C19         2.4572    3.7599   50.2352 C.2     1  ZINC001456096501    0.5200
     20 O20         2.1595    4.9320   50.1430 O.2     1  ZINC001456096501   -0.5300
     21 C21         3.2337    3.0906   49.1307 C.3     1  ZINC001456096501   -0.0800
     22 C22         3.2668    4.0047   47.9042 C.3     1  ZINC001456096501   -0.1300
     23 C23         4.6634    2.8201   49.6038 C.3     1  ZINC001456096501   -0.1500
     24 C24         2.5595    1.7674   48.7626 C.3     1  ZINC001456096501   -0.1700
     25 C25        -0.8188    2.6776   51.5448 C.3     1  ZINC001456096501    0.1200
     26 H26        -7.0730   -0.3337   52.1656 H       1  ZINC001456096501    0.0600
     27 H27        -6.2564   -0.4066   50.5857 H       1  ZINC001456096501    0.0600
     28 H28        -5.6919   -1.4310   51.9275 H       1  ZINC001456096501    0.1000
     29 H29        -8.2821    3.7195   52.0175 H       1  ZINC001456096501    0.1700
     30 H30        -6.7411    5.4213   51.1400 H       1  ZINC001456096501    0.1500
     31 H31        -4.3787    4.8133   50.6843 H       1  ZINC001456096501    0.1500
     32 H32        -2.8931    4.9406   52.1706 H       1  ZINC001456096501    0.0700
     33 H33        -2.9618    3.7747   53.5214 H       1  ZINC001456096501    0.0700
     34 H34        -0.8930    5.6011   53.1664 H       1  ZINC001456096501    0.0900
     35 H35        -0.6951    4.0367   54.0225 H       1  ZINC001456096501    0.0800
     36 H36         1.8257    4.6435   52.6699 H       1  ZINC001456096501    0.0800
     37 H37         1.3048    3.0503   53.2689 H       1  ZINC001456096501    0.0900
     38 H38         1.6868    1.0318   50.9569 H       1  ZINC001456096501    0.0600
     39 H39         3.4121    1.4693   50.9475 H       1  ZINC001456096501    0.0900
     40 H40         2.5285    1.3661   52.4892 H       1  ZINC001456096501    0.0700
     41 H41         3.7471    4.9473   48.1664 H       1  ZINC001456096501    0.0600
     42 H42         3.8284    3.5206   47.1053 H       1  ZINC001456096501    0.0600
     43 H43         2.2483    4.1974   47.5672 H       1  ZINC001456096501    0.0600
     44 H44         4.6368    2.2803   50.5504 H       1  ZINC001456096501    0.0700
     45 H45         5.1856    2.2207   48.8582 H       1  ZINC001456096501    0.0700
     46 H46         5.1862    3.7668   49.7401 H       1  ZINC001456096501    0.0600
     47 H47         1.5409    1.9601   48.4255 H       1  ZINC001456096501    0.0600
     48 H48         3.1211    1.2833   47.9636 H       1  ZINC001456096501    0.0700
     49 H49         2.5359    1.1163   49.6364 H       1  ZINC001456096501    0.0800
     50 H50        -0.5251    1.8735   52.2196 H       1  ZINC001456096501    0.0800
     51 H51        -0.6031    2.4047   50.5117 H       1  ZINC001456096501    0.0700
@<TRIPOS>BOND
     1     1     2    1
     2     1    26    1
     3     1    27    1
     4     1    28    1
     5     2     3    1
     6     3     8   ar
     7     3     4   ar
     8     4     5   ar
     9     5     6   ar
    10     5    29    1
    11     6     7   ar
    12     6    30    1
    13     7     8   ar
    14     7    31    1
    15     8     9    1
    16     9    10    2
    17     9    11   am
    18    11    25    1
    19    11    12    1
    20    12    13    1
    21    12    32    1
    22    12    33    1
    23    13    14    1
    24    13    34    1
    25    13    35    1
    26    14    15    1
    27    14    16    1
    28    14    25    1
    29    16    17    1
    30    16    36    1
    31    16    37    1
    32    17    18    1
    33    17    19   am
    34    18    38    1
    35    18    39    1
    36    18    40    1
    37    19    20    2
    38    19    21    1
    39    21    22    1
    40    21    23    1
    41    21    24    1
    42    22    41    1
    43    22    42    1
    44    22    43    1
    45    23    44    1
    46    23    45    1
    47    23    46    1
    48    24    47    1
    49    24    48    1
    50    24    49    1
    51    25    50    1
    52    25    51    1
@<TRIPOS>SUBSTRUCTURE
     1 ZINC001456096501        1 TEMP              0 ****  ****    0 ROOT


##########                                Name:    ZINC001296589646
##########                DOCK_Rotatable_Bonds:                   8
##########                         Heavy_Atoms:                  29
##########                    Molecular_Weight:             398.548
##########                DOCK_Rotatable_Bonds:                   8
##########                       Formal_Charge:          -0.0200008
##########                     HBond_Acceptors:                   6
##########                        HBond_Donors:                   0
##########                         Heavy_Atoms:                  29
##########                          Grid_Score:          -27.234802
##########                     Grid_vdw_energy:          -26.392878
##########                      Grid_es_energy:           -0.841925
##########           Internal_energy_repulsive:           33.684891

@<TRIPOS>MOLECULE
ZINC001296589646
 63 66 1 0 0
SMALL
USER_CHARGES


@<TRIPOS>ATOM
      1 C1          3.3956    0.5469   51.2988 C.3     1  ZINC001296589646   -0.1500
      2 C2          1.9800    1.1268   51.3241 C.3     1  ZINC001296589646    0.0500
      3 O3          2.0503    2.5537   51.3600 O.3     1  ZINC001296589646   -0.3600
      4 C4          1.3751    3.1964   50.2770 C.3     1  ZINC001296589646    0.1800
      5 C5         -0.0782    2.7991   50.2428 C.2     1  ZINC001296589646    0.1500
      6 N6         -0.7068    2.2558   49.2391 N.2     1  ZINC001296589646   -0.2600
      7 N7         -1.9363    2.0473   49.5499 N.2     1  ZINC001296589646   -0.3200
      8 C8         -2.1599    2.4497   50.7787 C.2     1  ZINC001296589646    0.3600
      9 N9         -3.3653    2.3868   51.4597 N.3     1  ZINC001296589646   -0.4300
     10 C10        -4.3597    3.3186   50.8691 C.3     1  ZINC001296589646    0.0300
     11 C11        -5.7140    2.7536   51.3662 C.3     1  ZINC001296589646   -0.1200
     12 C12        -5.4920    1.2246   51.3109 C.3     1  ZINC001296589646   -0.1000
     13 H13        -5.8967    0.8168   50.3847 H       1  ZINC001296589646    0.0800
     14 C14        -6.1457    0.5490   52.5180 C.3     1  ZINC001296589646   -0.1400
     15 C15        -3.9639    1.0384   51.3542 C.3     1  ZINC001296589646    0.0500
     16 N16        -0.9801    2.9365   51.2612 N.pl3   1  ZINC001296589646   -0.4600
     17 C17        -0.7332    3.4989   52.5913 C.3     1  ZINC001296589646    0.1000
     18 C18        -1.0930    4.9860   52.5910 C.3     1  ZINC001296589646   -0.1300
     19 C19        -0.8776    5.5631   53.9915 C.3     1  ZINC001296589646   -0.0500
     20 H20        -1.1337    6.6225   53.9913 H       1  ZINC001296589646    0.0800
     21 C21        -1.7690    4.8230   54.9907 C.3     1  ZINC001296589646   -0.1500
     22 C22         0.5669    5.3957   54.3870 C.ar    1  ZINC001296589646   -0.0800
     23 C23         1.4832    6.3886   54.0943 C.ar    1  ZINC001296589646   -0.1100
     24 C24         2.8083    6.2350   54.4571 C.ar    1  ZINC001296589646   -0.1200
     25 C25         3.2170    5.0887   55.1127 C.ar    1  ZINC001296589646   -0.1200
     26 C26         2.3006    4.0963   55.4061 C.ar    1  ZINC001296589646   -0.1200
     27 C27         0.9747    4.2518   55.0472 C.ar    1  ZINC001296589646   -0.1200
     28 C28         2.0713    2.8792   48.9254 C.3     1  ZINC001296589646   -0.1400
     29 C29         3.1942    3.9469   48.9152 C.3     1  ZINC001296589646    0.0600
     30 O30         2.6086    5.1126   49.5166 O.3     1  ZINC001296589646   -0.3700
     31 C31         1.5234    4.7302   50.3698 C.3     1  ZINC001296589646    0.0400
     32 H32         3.8900    0.8354   50.3712 H       1  ZINC001296589646    0.0600
     33 H33         3.9613    0.9324   52.1471 H       1  ZINC001296589646    0.0700
     34 H34         3.3441   -0.5402   51.3602 H       1  ZINC001296589646    0.0700
     35 H35         1.4424    0.8120   50.4296 H       1  ZINC001296589646    0.0500
     36 H36         1.4554    0.7665   52.2088 H       1  ZINC001296589646    0.0600
     37 H37        -4.2058    4.3317   51.2407 H       1  ZINC001296589646    0.0900
     38 H38        -4.3096    3.2954   49.7805 H       1  ZINC001296589646    0.0600
     39 H39        -5.9156    3.0774   52.3872 H       1  ZINC001296589646    0.0800
     40 H40        -6.5238    3.0501   50.6994 H       1  ZINC001296589646    0.0800
     41 H41        -7.2202    0.7319   52.4988 H       1  ZINC001296589646    0.0600
     42 H42        -5.9591   -0.5241   52.4790 H       1  ZINC001296589646    0.0600
     43 H43        -5.7239    0.9582   53.4360 H       1  ZINC001296589646    0.0600
     44 H44        -3.6232    0.5513   50.4405 H       1  ZINC001296589646    0.0800
     45 H45        -3.6872    0.4403   52.2224 H       1  ZINC001296589646    0.0900
     46 H46        -1.3462    2.9770   53.3261 H       1  ZINC001296589646    0.1100
     47 H47         0.3198    3.3799   52.8464 H       1  ZINC001296589646    0.1000
     48 H48        -0.4579    5.5133   51.8791 H       1  ZINC001296589646    0.0800
     49 H49        -2.1378    5.1070   52.3048 H       1  ZINC001296589646    0.0700
     50 H50        -1.6154    5.2341   55.9885 H       1  ZINC001296589646    0.0600
     51 H51        -2.8137    4.9442   54.7046 H       1  ZINC001296589646    0.0600
     52 H52        -1.5128    3.7635   54.9909 H       1  ZINC001296589646    0.0600
     53 H53         1.1639    7.2842   53.5820 H       1  ZINC001296589646    0.1200
     54 H54         3.5242    7.0104   54.2278 H       1  ZINC001296589646    0.1200
     55 H55         4.2524    4.9685   55.3955 H       1  ZINC001296589646    0.1200
     56 H56         2.6200    3.2006   55.9181 H       1  ZINC001296589646    0.1200
     57 H57         0.2588    3.4763   55.2765 H       1  ZINC001296589646    0.1200
     58 H58         2.4874    1.8716   48.9248 H       1  ZINC001296589646    0.1000
     59 H59         1.3874    3.0202   48.0885 H       1  ZINC001296589646    0.1000
     60 H60         4.0463    3.6056   49.5030 H       1  ZINC001296589646    0.0700
     61 H61         3.5014    4.1630   47.8921 H       1  ZINC001296589646    0.0900
     62 H62         0.6039    5.2115   50.0367 H       1  ZINC001296589646    0.1000
     63 H63         1.7418    5.0191   51.3978 H       1  ZINC001296589646    0.0800
@<TRIPOS>BOND
     1     1     2    1
     2     1    32    1
     3     1    33    1
     4     1    34    1
     5     2     3    1
     6     2    35    1
     7     2    36    1
     8     3     4    1
     9     4    31    1
    10     4     5    1
    11     4    28    1
    12     5    16    1
    13     5     6    2
    14     6     7    1
    15     7     8    2
    16     8     9    1
    17     8    16    1
    18     9    15    1
    19     9    10    1
    20    10    11    1
    21    10    37    1
    22    10    38    1
    23    11    12    1
    24    11    39    1
    25    11    40    1
    26    12    13    1
    27    12    14    1
    28    12    15    1
    29    14    41    1
    30    14    42    1
    31    14    43    1
    32    15    44    1
    33    15    45    1
    34    16    17    1
    35    17    18    1
    36    17    46    1
    37    17    47    1
    38    18    19    1
    39    18    48    1
    40    18    49    1
    41    19    20    1
    42    19    21    1
    43    19    22    1
    44    21    50    1
    45    21    51    1
    46    21    52    1
    47    22    27   ar
    48    22    23   ar
    49    23    24   ar
    50    23    53    1
    51    24    25   ar
    52    24    54    1
    53    25    26   ar
    54    25    55    1
    55    26    27   ar
    56    26    56    1
    57    27    57    1
    58    28    29    1
    59    28    58    1
    60    28    59    1
    61    29    30    1
    62    29    60    1
    63    29    61    1
    64    30    31    1
    65    31    62    1
    66    31    63    1
@<TRIPOS>SUBSTRUCTURE
     1 ZINC001296589646        1 TEMP              0 ****  ****    0 ROOT


##########                                Name:    ZINC000848949366
##########                DOCK_Rotatable_Bonds:                   8
##########                         Heavy_Atoms:                  25
##########                    Molecular_Weight:             368.773
##########                DOCK_Rotatable_Bonds:                   8
##########                       Formal_Charge:          0.00999947
##########                     HBond_Acceptors:                   9
##########                        HBond_Donors:                   3
##########                         Heavy_Atoms:                  25
##########                          Grid_Score:          -27.186762
##########                     Grid_vdw_energy:          -26.880323
##########                      Grid_es_energy:           -0.306438
##########           Internal_energy_repulsive:           18.445995

@<TRIPOS>MOLECULE
ZINC000848949366
 42 43 1 0 0
SMALL
USER_CHARGES


@<TRIPOS>ATOM
      1 C1         -2.5189    1.9056   50.3237 C.3     1  ZINC000848949366   -0.1500
      2 C2         -2.5842    2.7248   51.6143 C.3     1  ZINC000848949366    0.0600
      3 O3         -3.6969    2.2901   52.3985 O.3     1  ZINC000848949366   -0.3500
      4 C4         -4.9154    2.7439   52.0372 C.2     1  ZINC000848949366    0.5400
      5 O5         -5.0119    3.7048   51.2969 O.2     1  ZINC000848949366   -0.4800
      6 C6         -6.0805    2.1025   52.5191 C.2     1  ZINC000848949366   -0.2300
      7 C7         -6.6279    2.4476   53.7043 C.2     1  ZINC000848949366    0.2000
      8 C8         -5.9873    3.5349   54.5282 C.3     1  ZINC000848949366    0.1000
      9 O9         -6.8060    3.8023   55.6972 O.3     1  ZINC000848949366   -0.3500
     10 C10        -6.5646    3.0602   56.7958 C.2     1  ZINC000848949366    0.5100
     11 O11        -5.7058    2.2008   56.7720 O.2     1  ZINC000848949366   -0.4800
     12 C12        -7.3421    3.2908   58.0260 C.ar    1  ZINC000848949366   -0.1600
     13 C13        -8.1850    4.4011   58.1268 C.ar    1  ZINC000848949366   -0.0300
     14 C14        -8.9092    4.6114   59.2795 C.ar    1  ZINC000848949366   -0.1300
     15 C15        -8.8059    3.7261   60.3418 C.ar    1  ZINC000848949366    0.0200
     16 Cl16       -9.7239    4.0035   61.7888 Cl      1  ZINC000848949366   -0.0500
     17 C17        -7.9762    2.6237   60.2550 C.ar    1  ZINC000848949366   -0.1500
     18 C18        -7.2448    2.3940   59.1002 C.ar    1  ZINC000848949366    0.1900
     19 O19        -6.4303    1.3129   59.0135 O.3     1  ZINC000848949366   -0.4700
     20 N20        -7.7530    1.8280   54.1682 N.am    1  ZINC000848949366   -0.6400
     21 C21        -8.3901    0.8535   53.5069 C.2     1  ZINC000848949366    0.7100
     22 O22        -9.3858    0.3614   54.0010 O.2     1  ZINC000848949366   -0.5600
     23 N23        -7.9638    0.4007   52.3112 N.am    1  ZINC000848949366   -0.7100
     24 C24        -6.7601    1.0090   51.7201 C.3     1  ZINC000848949366    0.2000
     25 H25        -7.0327    1.4150   50.7459 H       1  ZINC000848949366    0.0900
     26 C26        -5.7332   -0.1021   51.4926 C.3     1  ZINC000848949366   -0.1700
     27 H27        -1.6702    2.2370   49.7255 H       1  ZINC000848949366    0.0800
     28 H28        -2.4007    0.8501   50.5688 H       1  ZINC000848949366    0.0700
     29 H29        -3.4396    2.0461   49.7573 H       1  ZINC000848949366    0.0700
     30 H30        -1.6635    2.5842   52.1807 H       1  ZINC000848949366    0.0700
     31 H31        -2.7024    3.7802   51.3692 H       1  ZINC000848949366    0.0700
     32 H32        -4.9951    3.2137   54.8452 H       1  ZINC000848949366    0.1100
     33 H33        -5.9016    4.4416   53.9295 H       1  ZINC000848949366    0.1000
     34 H34        -8.2680    5.0936   57.3022 H       1  ZINC000848949366    0.1500
     35 H35        -9.5601    5.4697   59.3563 H       1  ZINC000848949366    0.1500
     36 H36        -7.9008    1.9385   61.0864 H       1  ZINC000848949366    0.1500
     37 H37        -6.4258    0.7592   59.8064 H       1  ZINC000848949366    0.4000
     38 H38        -8.1104    2.1094   55.0248 H       1  ZINC000848949366    0.4300
     39 H39        -8.4406   -0.3067   51.8495 H       1  ZINC000848949366    0.4400
     40 H40        -6.1493   -0.8485   50.8160 H       1  ZINC000848949366    0.0700
     41 H41        -4.8298    0.3222   51.0544 H       1  ZINC000848949366    0.0700
     42 H42        -5.4889   -0.5716   52.4456 H       1  ZINC000848949366    0.0700
@<TRIPOS>BOND
     1     1     2    1
     2     1    27    1
     3     1    28    1
     4     1    29    1
     5     2     3    1
     6     2    30    1
     7     2    31    1
     8     3     4    1
     9     4     5    2
    10     4     6    1
    11     6    24    1
    12     6     7    2
    13     7     8    1
    14     7    20    1
    15     8     9    1
    16     8    32    1
    17     8    33    1
    18     9    10    1
    19    10    11    2
    20    10    12    1
    21    12    18   ar
    22    12    13   ar
    23    13    14   ar
    24    13    34    1
    25    14    15   ar
    26    14    35    1
    27    15    16    1
    28    15    17   ar
    29    17    18   ar
    30    17    36    1
    31    18    19    1
    32    19    37    1
    33    20    21   am
    34    20    38    1
    35    21    22    2
    36    21    23   am
    37    23    24    1
    38    23    39    1
    39    24    25    1
    40    24    26    1
    41    26    40    1
    42    26    41    1
    43    26    42    1
@<TRIPOS>SUBSTRUCTURE
     1 ZINC000848949366        1 TEMP              0 ****  ****    0 ROOT


##########                                Name:    ZINC000656860804
##########                DOCK_Rotatable_Bonds:                   2
##########                         Heavy_Atoms:                  19
##########                    Molecular_Weight:             388.068
##########                DOCK_Rotatable_Bonds:                   2
##########                       Formal_Charge:          8.9407e-08
##########                     HBond_Acceptors:                   8
##########                        HBond_Donors:                   1
##########                         Heavy_Atoms:                  19
##########                          Grid_Score:          -27.160028
##########                     Grid_vdw_energy:          -26.864931
##########                      Grid_es_energy:           -0.295097
##########           Internal_energy_repulsive:           17.536781

@<TRIPOS>MOLECULE
ZINC000656860804
 28 29 1 0 0
SMALL
USER_CHARGES


@<TRIPOS>ATOM
      1 O1         -7.9298   -0.9304   52.3686 O.2     1  ZINC000656860804   -0.5400
      2 C2         -7.7982    0.2691   52.4906 C.2     1  ZINC000656860804    0.5100
      3 C3         -6.4471    0.8737   52.2222 C.3     1  ZINC000656860804    0.1100
      4 N4         -6.5890    2.3343   52.1294 N.am    1  ZINC000656860804   -1.0000
      5 S5         -5.8063    3.2033   50.9569 S.o2    1  ZINC000656860804    2.6900
      6 O6         -6.1522    2.6046   49.7155 O.2     1  ZINC000656860804   -0.9200
      7 O7         -6.0394    4.5740   51.2504 O.2     1  ZINC000656860804   -0.9300
      8 C8         -4.0786    2.9348   51.1746 C.ar    1  ZINC000656860804   -0.6500
      9 C9         -3.3429    2.3265   50.1754 C.ar    1  ZINC000656860804    0.0100
     10 C10        -1.9862    2.1154   50.3458 C.ar    1  ZINC000656860804   -0.0400
     11 Cl11       -1.0619    1.3517   49.0903 Cl      1  ZINC000656860804   -0.0200
     12 C12        -1.3659    2.5137   51.5177 C.ar    1  ZINC000656860804    0.0200
     13 Cl13        0.3366    2.2498   51.7321 Cl      1  ZINC000656860804   -0.0100
     14 C14        -2.1030    3.1227   52.5174 C.ar    1  ZINC000656860804   -0.0900
     15 C15        -3.4579    3.3382   52.3435 C.ar    1  ZINC000656860804    0.0100
     16 Br16       -4.4657    4.1705   53.7101 Br      1  ZINC000656860804    0.0100
     17 C17        -7.4559    2.9930   53.1210 C.3     1  ZINC000656860804    0.0900
     18 C18        -8.8744    2.4446   52.9546 C.3     1  ZINC000656860804    0.0800
     19 N19        -8.8594    0.9921   52.8513 N.am    1  ZINC000656860804   -0.7100
     20 H20        -5.7671    0.6240   53.0367 H       1  ZINC000656860804    0.1200
     21 H21        -6.0531    0.4848   51.2833 H       1  ZINC000656860804    0.1200
     22 H22        -3.8271    2.0155   49.2615 H       1  ZINC000656860804    0.1700
     23 H23        -1.6197    3.4332   53.4318 H       1  ZINC000656860804    0.1700
     24 H24        -7.0941    2.7777   54.1265 H       1  ZINC000656860804    0.1000
     25 H25        -7.4557    4.0698   52.9523 H       1  ZINC000656860804    0.1200
     26 H26        -9.4762    2.7393   53.8142 H       1  ZINC000656860804    0.1000
     27 H27        -9.3158    2.8606   52.0489 H       1  ZINC000656860804    0.0800
     28 H28        -9.6770    0.5163   53.0660 H       1  ZINC000656860804    0.4000
@<TRIPOS>BOND
     1     1     2    2
     2     2    19   am
     3     2     3    1
     4     3     4    1
     5     3    20    1
     6     3    21    1
     7     4     5   am
     8     4    17    1
     9     5     6    2
    10     5     7    2
    11     5     8    1
    12     8    15   ar
    13     8     9   ar
    14     9    10   ar
    15     9    22    1
    16    10    11    1
    17    10    12   ar
    18    12    13    1
    19    12    14   ar
    20    14    15   ar
    21    14    23    1
    22    15    16    1
    23    17    18    1
    24    17    24    1
    25    17    25    1
    26    18    19    1
    27    18    26    1
    28    18    27    1
    29    19    28    1
@<TRIPOS>SUBSTRUCTURE
     1 ZINC000656860804        1 TEMP              0 ****  ****    0 ROOT


##########                                Name:    ZINC000836820897
##########                DOCK_Rotatable_Bonds:                   5
##########                         Heavy_Atoms:                  22
##########                    Molecular_Weight:             330.355
##########                DOCK_Rotatable_Bonds:                   5
##########                       Formal_Charge:          -0.0200003
##########                     HBond_Acceptors:                   8
##########                        HBond_Donors:                   1
##########                         Heavy_Atoms:                  22
##########                          Grid_Score:          -27.157917
##########                     Grid_vdw_energy:          -26.528288
##########                      Grid_es_energy:           -0.629629
##########           Internal_energy_repulsive:            6.948300

@<TRIPOS>MOLECULE
ZINC000836820897
 38 40 1 0 0
SMALL
USER_CHARGES


@<TRIPOS>ATOM
      1 O1         -8.0789   -0.9247   52.8239 O.2     1  ZINC000836820897   -0.5200
      2 C2         -8.6343    0.1460   52.9755 C.2     1  ZINC000836820897    0.5800
      3 C3         -7.8341    1.3796   53.1184 C.ar    1  ZINC000836820897   -0.1600
      4 C4         -7.8255    2.0727   54.3304 C.ar    1  ZINC000836820897   -0.0100
      5 C5         -7.0765    3.2230   54.4584 C.ar    1  ZINC000836820897   -0.1700
      6 C6         -6.3330    3.6919   53.3865 C.ar    1  ZINC000836820897    0.2200
      7 F7         -5.6007    4.8197   53.5173 F       1  ZINC000836820897   -0.1100
      8 C8         -6.3376    3.0071   52.1805 C.ar    1  ZINC000836820897   -0.7200
      9 S9         -5.3887    3.6095   50.8236 S.o2    1  ZINC000836820897    2.7000
     10 O10        -5.4173    2.5928   49.8312 O.2     1  ZINC000836820897   -0.9400
     11 O11        -5.8277    4.9399   50.5860 O.2     1  ZINC000836820897   -0.9400
     12 N12        -3.8174    3.7197   51.3348 N.am    1  ZINC000836820897   -1.0800
     13 C13        -3.1132    2.5228   51.8012 C.3     1  ZINC000836820897    0.0700
     14 C14        -2.5652    1.5668   50.7396 C.3     1  ZINC000836820897   -0.1800
     15 C15        -1.6066    2.4451   51.5460 C.3     1  ZINC000836820897   -0.1900
     16 C16        -7.0789    1.8534   52.0432 C.ar    1  ZINC000836820897    0.0600
     17 N17        -9.9803    0.2085   53.0075 N.am    1  ZINC000836820897   -0.6200
     18 C18       -10.8944   -0.9364   52.8843 C.3     1  ZINC000836820897    0.0900
     19 C19       -12.3324   -0.3897   53.0055 C.3     1  ZINC000836820897   -0.1600
     20 C20       -12.1315    0.9536   53.7557 C.3     1  ZINC000836820897    0.0800
     21 H21       -12.0580    0.7932   54.8313 H       1  ZINC000836820897    0.1100
     22 F22       -13.1585    1.8545   53.4546 F       1  ZINC000836820897   -0.1900
     23 C23       -10.7797    1.4354   53.1783 C.3     1  ZINC000836820897    0.0800
     24 H24        -8.4047    1.7084   55.1660 H       1  ZINC000836820897    0.1500
     25 H25        -7.0695    3.7601   55.3954 H       1  ZINC000836820897    0.1600
     26 H26        -3.3633    4.5769   51.3255 H       1  ZINC000836820897    0.4200
     27 H27        -3.4901    2.0859   52.7259 H       1  ZINC000836820897    0.1400
     28 H28        -2.5819    0.5007   50.9657 H       1  ZINC000836820897    0.1100
     29 H29        -2.7289    1.8286   49.6942 H       1  ZINC000836820897    0.1000
     30 H30        -1.1394    3.2847   51.0311 H       1  ZINC000836820897    0.1000
     31 H31        -0.9924    1.9569   52.3027 H       1  ZINC000836820897    0.1000
     32 H32        -7.0816    1.3208   51.1037 H       1  ZINC000836820897    0.1600
     33 H33       -10.7603   -1.4151   51.9143 H       1  ZINC000836820897    0.0800
     34 H34       -10.7014   -1.6525   53.6832 H       1  ZINC000836820897    0.0800
     35 H35       -12.7648   -0.2198   52.0196 H       1  ZINC000836820897    0.0900
     36 H36       -12.9550   -1.0679   53.5892 H       1  ZINC000836820897    0.1000
     37 H37       -10.2909    2.1168   53.8746 H       1  ZINC000836820897    0.1000
     38 H38       -10.9304    1.9207   52.2140 H       1  ZINC000836820897    0.0900
@<TRIPOS>BOND
     1     1     2    2
     2     2     3    1
     3     2    17   am
     4     3    16   ar
     5     3     4   ar
     6     4     5   ar
     7     4    24    1
     8     5     6   ar
     9     5    25    1
    10     6     7    1
    11     6     8   ar
    12     8     9    1
    13     8    16   ar
    14     9    10    2
    15     9    11    2
    16     9    12   am
    17    12    13    1
    18    12    26    1
    19    13    15    1
    20    13    14    1
    21    13    27    1
    22    14    15    1
    23    14    28    1
    24    14    29    1
    25    15    30    1
    26    15    31    1
    27    16    32    1
    28    17    23    1
    29    17    18    1
    30    18    19    1
    31    18    33    1
    32    18    34    1
    33    19    20    1
    34    19    35    1
    35    19    36    1
    36    20    21    1
    37    20    22    1
    38    20    23    1
    39    23    37    1
    40    23    38    1
@<TRIPOS>SUBSTRUCTURE
     1 ZINC000836820897        1 TEMP              0 ****  ****    0 ROOT


##########                                Name:    ZINC000845755710
##########                DOCK_Rotatable_Bonds:                   3
##########                         Heavy_Atoms:                  24
##########                    Molecular_Weight:             349.814
##########                DOCK_Rotatable_Bonds:                   3
##########                       Formal_Charge:         -0.00999974
##########                     HBond_Acceptors:                   6
##########                        HBond_Donors:                   0
##########                         Heavy_Atoms:                  24
##########                          Grid_Score:          -27.145739
##########                     Grid_vdw_energy:          -25.929033
##########                      Grid_es_energy:           -1.216706
##########           Internal_energy_repulsive:           13.734498

@<TRIPOS>MOLECULE
ZINC000845755710
 44 47 1 0 0
SMALL
USER_CHARGES


@<TRIPOS>ATOM
      1 C1         -0.3813    4.8623   58.9510 C.3     1  ZINC000845755710   -0.1700
      2 C2         -0.6627    3.8060   57.8805 C.3     1  ZINC000845755710    0.2600
      3 C3         -1.5512    4.4050   56.7884 C.3     1  ZINC000845755710   -0.0900
      4 C4         -0.7308    5.3812   55.9421 C.3     1  ZINC000845755710   -0.1300
      5 C5         -1.6320    6.0048   54.8718 C.3     1  ZINC000845755710    0.1100
      6 N6         -2.2683    4.9268   54.1026 N.am    1  ZINC000845755710   -0.6000
      7 C7         -2.1759    4.8954   52.7584 C.2     1  ZINC000845755710    0.5900
      8 O8         -1.5611    5.7651   52.1705 O.2     1  ZINC000845755710   -0.5200
      9 C9         -2.8183    3.8097   52.0022 C.2     1  ZINC000845755710   -0.2200
     10 C10        -2.2634    2.6218   51.6387 C.2     1  ZINC000845755710    0.0600
     11 O11        -3.1564    1.8914   50.9609 O.3     1  ZINC000845755710   -0.1800
     12 C12        -4.3322    2.5421   50.8392 C.ar    1  ZINC000845755710    0.0500
     13 C13        -5.5406    2.2144   50.2373 C.ar    1  ZINC000845755710   -0.0900
     14 C14        -6.5930    3.1043   50.2748 C.ar    1  ZINC000845755710   -0.0800
     15 C15        -6.4595    4.3308   50.9096 C.ar    1  ZINC000845755710   -0.0400
     16 Cl16       -7.7968    5.4374   50.9450 Cl      1  ZINC000845755710   -0.0600
     17 C17        -5.2669    4.6732   51.5133 C.ar    1  ZINC000845755710   -0.0500
     18 C18        -4.2013    3.7801   51.4856 C.ar    1  ZINC000845755710   -0.0900
     19 C19        -3.0068    3.8833   54.8267 C.3     1  ZINC000845755710    0.1000
     20 C20        -2.0902    3.2835   55.8976 C.3     1  ZINC000845755710   -0.1300
     21 O21         0.5764    3.3628   57.3019 O.3     1  ZINC000845755710   -0.3700
     22 C22         0.9192    2.1626   58.0356 C.3     1  ZINC000845755710    0.0100
     23 C23        -0.4751    1.5320   58.2765 C.3     1  ZINC000845755710    0.0200
     24 O24        -1.3229    2.6811   58.4756 O.3     1  ZINC000845755710   -0.3800
     25 H25         0.2473    4.4314   59.7303 H       1  ZINC000845755710    0.0600
     26 H26         0.1318    5.7108   58.4982 H       1  ZINC000845755710    0.0800
     27 H27        -1.3224    5.1974   59.3871 H       1  ZINC000845755710    0.0800
     28 H28        -2.3846    4.9355   57.2488 H       1  ZINC000845755710    0.0900
     29 H29        -0.3278    6.1668   56.5813 H       1  ZINC000845755710    0.0800
     30 H30         0.0885    4.8465   55.4616 H       1  ZINC000845755710    0.0800
     31 H31        -2.3988    6.6144   55.3496 H       1  ZINC000845755710    0.0700
     32 H32        -1.0324    6.6246   54.2051 H       1  ZINC000845755710    0.1000
     33 H33        -1.2528    2.3144   51.8634 H       1  ZINC000845755710    0.2200
     34 H34        -5.6556    1.2628   49.7397 H       1  ZINC000845755710    0.1500
     35 H35        -7.5302    2.8444   49.8053 H       1  ZINC000845755710    0.1500
     36 H36        -5.1627    5.6279   52.0075 H       1  ZINC000845755710    0.1400
     37 H37        -3.8858    4.3198   55.3009 H       1  ZINC000845755710    0.0800
     38 H38        -3.3144    3.1032   54.1303 H       1  ZINC000845755710    0.0900
     39 H39        -1.2582    2.7684   55.4174 H       1  ZINC000845755710    0.0700
     40 H40        -2.6547    2.5760   56.5049 H       1  ZINC000845755710    0.0800
     41 H41         1.5469    1.5041   57.4352 H       1  ZINC000845755710    0.1100
     42 H42         1.4050    2.4079   58.9800 H       1  ZINC000845755710    0.0800
     43 H43        -0.7963    0.9627   57.4042 H       1  ZINC000845755710    0.0800
     44 H44        -0.4645    0.9023   59.1661 H       1  ZINC000845755710    0.1000
@<TRIPOS>BOND
     1     1     2    1
     2     1    25    1
     3     1    26    1
     4     1    27    1
     5     2    24    1
     6     2     3    1
     7     2    21    1
     8     3    20    1
     9     3     4    1
    10     3    28    1
    11     4     5    1
    12     4    29    1
    13     4    30    1
    14     5     6    1
    15     5    31    1
    16     5    32    1
    17     6     7   am
    18     6    19    1
    19     7     8    2
    20     7     9    1
    21     9    18    1
    22     9    10    2
    23    10    11    1
    24    10    33    1
    25    11    12    1
    26    12    18   ar
    27    12    13   ar
    28    13    14   ar
    29    13    34    1
    30    14    15   ar
    31    14    35    1
    32    15    16    1
    33    15    17   ar
    34    17    18   ar
    35    17    36    1
    36    19    20    1
    37    19    37    1
    38    19    38    1
    39    20    39    1
    40    20    40    1
    41    21    22    1
    42    22    23    1
    43    22    41    1
    44    22    42    1
    45    23    24    1
    46    23    43    1
    47    23    44    1
@<TRIPOS>SUBSTRUCTURE
     1 ZINC000845755710        1 TEMP              0 ****  ****    0 ROOT


##########                                Name:    ZINC001162683355
##########                DOCK_Rotatable_Bonds:                   5
##########                         Heavy_Atoms:                  25
##########                    Molecular_Weight:             336.437
##########                DOCK_Rotatable_Bonds:                   5
##########                       Formal_Charge:          -0.0100002
##########                     HBond_Acceptors:                   5
##########                        HBond_Donors:                   1
##########                         Heavy_Atoms:                  25
##########                          Grid_Score:          -27.136517
##########                     Grid_vdw_energy:          -28.768137
##########                      Grid_es_energy:            1.631621
##########           Internal_energy_repulsive:            8.012671

@<TRIPOS>MOLECULE
ZINC001162683355
 49 52 1 0 0
SMALL
USER_CHARGES


@<TRIPOS>ATOM
      1 C1         -8.1340    1.5914   53.6807 C.3     1  ZINC001162683355    0.0200
      2 N2         -7.2821    1.3916   52.5008 N.3     1  ZINC001162683355   -0.5400
      3 C3         -6.6739    0.0532   52.5106 C.3     1  ZINC001162683355    0.0100
      4 C4         -5.8446   -0.1340   51.2373 C.3     1  ZINC001162683355    0.0600
      5 O5         -4.8655    0.9052   51.1550 O.3     1  ZINC001162683355   -0.3800
      6 C6         -5.4232    2.2221   51.1426 C.3     1  ZINC001162683355    0.0800
      7 H7         -6.0646    2.3374   50.2689 H       1  ZINC001162683355    0.0700
      8 C8         -4.2951    3.2541   51.0881 C.3     1  ZINC001162683355    0.1500
      9 N9         -3.1197    2.7304   51.7882 N.pl3   1  ZINC001162683355   -0.7300
     10 C10        -2.6033    3.4111   52.8853 C.ar    1  ZINC001162683355    0.4300
     11 C11        -1.2216    3.5610   53.0257 C.ar    1  ZINC001162683355   -0.0100
     12 C12        -0.7331    4.2555   54.1474 C.ar    1  ZINC001162683355   -0.0400
     13 C13        -1.6510    4.7668   55.0747 C.ar    1  ZINC001162683355   -0.1800
     14 C14        -2.9841    4.5731   54.8572 C.ar    1  ZINC001162683355    0.1000
     15 N15        -3.4215    3.9159   53.7939 N.ar    1  ZINC001162683355   -0.5400
     16 C16         0.7215    4.2521   54.0250 C.2     1  ZINC001162683355   -0.2200
     17 C17         1.0189    3.5844   52.8959 C.2     1  ZINC001162683355    0.0800
     18 N18        -0.1299    3.1699   52.2845 N.pl3   1  ZINC001162683355   -0.4600
     19 C19        -0.1908    2.4158   51.0300 C.3     1  ZINC001162683355    0.1500
     20 C20         1.2069    2.1749   50.5204 C.ar    1  ZINC001162683355   -0.1100
     21 C21         1.9926    1.1937   51.0955 C.ar    1  ZINC001162683355   -0.1000
     22 C22         3.2731    0.9697   50.6252 C.ar    1  ZINC001162683355   -0.1200
     23 C23         3.7711    1.7332   49.5860 C.ar    1  ZINC001162683355   -0.1100
     24 C24         2.9872    2.7180   49.0144 C.ar    1  ZINC001162683355   -0.1200
     25 C25         1.7052    2.9389   49.4818 C.ar    1  ZINC001162683355   -0.1000
     26 C26        -6.2482    2.4331   52.4149 C.3     1  ZINC001162683355    0.0300
     27 H27        -7.5210    1.5569   54.5814 H       1  ZINC001162683355    0.0300
     28 H28        -8.6264    2.5614   53.6133 H       1  ZINC001162683355    0.0700
     29 H29        -8.8866    0.8040   53.7231 H       1  ZINC001162683355    0.0700
     30 H30        -7.4582   -0.7027   52.5486 H       1  ZINC001162683355    0.0900
     31 H31        -6.0284   -0.0468   53.3832 H       1  ZINC001162683355    0.0500
     32 H32        -6.4990   -0.0874   50.3667 H       1  ZINC001162683355    0.0600
     33 H33        -5.3458   -1.1027   51.2662 H       1  ZINC001162683355    0.1000
     34 H34        -4.6228    4.1763   51.5679 H       1  ZINC001162683355    0.0700
     35 H35        -4.0382    3.4570   50.0483 H       1  ZINC001162683355    0.0800
     36 H36        -2.7015    1.9089   51.4864 H       1  ZINC001162683355    0.4000
     37 H37        -1.3092    5.3052   55.9463 H       1  ZINC001162683355    0.1300
     38 H38        -3.6977    4.9645   55.5671 H       1  ZINC001162683355    0.1500
     39 H39         1.4254    4.6970   54.7128 H       1  ZINC001162683355    0.1500
     40 H40         2.0176    3.4048   52.5264 H       1  ZINC001162683355    0.1700
     41 H41        -0.7539    2.9853   50.2906 H       1  ZINC001162683355    0.0900
     42 H42        -0.6838    1.4595   51.2045 H       1  ZINC001162683355    0.0900
     43 H43         1.6049    0.5997   51.9099 H       1  ZINC001162683355    0.1200
     44 H44         3.8854    0.2001   51.0715 H       1  ZINC001162683355    0.1300
     45 H45         4.7724    1.5600   49.2203 H       1  ZINC001162683355    0.1300
     46 H46         3.3763    3.3144   48.2025 H       1  ZINC001162683355    0.1300
     47 H47         1.0928    3.7084   49.0353 H       1  ZINC001162683355    0.1200
     48 H48        -5.5959    2.3711   53.2860 H       1  ZINC001162683355    0.0500
     49 H49        -6.7217    3.4143   52.3831 H       1  ZINC001162683355    0.0900
@<TRIPOS>BOND
     1     1     2    1
     2     1    27    1
     3     1    28    1
     4     1    29    1
     5     2    26    1
     6     2     3    1
     7     3     4    1
     8     3    30    1
     9     3    31    1
    10     4     5    1
    11     4    32    1
    12     4    33    1
    13     5     6    1
    14     6     7    1
    15     6     8    1
    16     6    26    1
    17     8     9    1
    18     8    34    1
    19     8    35    1
    20     9    10    1
    21     9    36    1
    22    10    15   ar
    23    10    11   ar
    24    11    18    1
    25    11    12   ar
    26    12    13   ar
    27    12    16    1
    28    13    14   ar
    29    13    37    1
    30    14    15   ar
    31    14    38    1
    32    16    17    2
    33    16    39    1
    34    17    18    1
    35    17    40    1
    36    18    19    1
    37    19    20    1
    38    19    41    1
    39    19    42    1
    40    20    25   ar
    41    20    21   ar
    42    21    22   ar
    43    21    43    1
    44    22    23   ar
    45    22    44    1
    46    23    24   ar
    47    23    45    1
    48    24    25   ar
    49    24    46    1
    50    25    47    1
    51    26    48    1
    52    26    49    1
@<TRIPOS>SUBSTRUCTURE
     1 ZINC001162683355        1 TEMP              0 ****  ****    0 ROOT


##########                                Name:    ZINC000817655807
##########                DOCK_Rotatable_Bonds:                   3
##########                         Heavy_Atoms:                  24
##########                    Molecular_Weight:             352.774
##########                DOCK_Rotatable_Bonds:                   3
##########                       Formal_Charge:         3.35276e-07
##########                     HBond_Acceptors:                   8
##########                        HBond_Donors:                   0
##########                         Heavy_Atoms:                  24
##########                          Grid_Score:          -27.097366
##########                     Grid_vdw_energy:          -26.542925
##########                      Grid_es_energy:           -0.554441
##########           Internal_energy_repulsive:            2.470943

@<TRIPOS>MOLECULE
ZINC000817655807
 41 44 1 0 0
SMALL
USER_CHARGES


@<TRIPOS>ATOM
      1 C1          1.9585    4.2355   61.3987 C.3     1  ZINC000817655807    0.1100
      2 N2          1.5506    3.5420   60.1744 N.am    1  ZINC000817655807   -0.6400
      3 C3          0.2721    3.7326   59.4662 C.3     1  ZINC000817655807    0.1000
      4 C4          0.3820    2.7735   58.2774 C.3     1  ZINC000817655807    0.0500
      5 C5         -0.8083    1.8377   58.0657 C.3     1  ZINC000817655807    0.1200
      6 N6         -1.3057    2.8615   57.1230 N.am    1  ZINC000817655807   -0.6500
      7 C7         -2.5226    3.1952   56.6493 C.2     1  ZINC000817655807    0.5500
      8 O8         -3.5039    2.5827   57.0134 O.2     1  ZINC000817655807   -0.5100
      9 C9         -2.6637    4.3296   55.6672 C.3     1  ZINC000817655807   -0.0900
     10 C10        -3.1532    3.7929   54.3468 C.ar    1  ZINC000817655807   -0.0600
     11 C11        -2.2447    3.3797   53.3907 C.ar    1  ZINC000817655807   -0.0900
     12 C12        -2.6904    2.8885   52.1767 C.ar    1  ZINC000817655807   -0.0300
     13 Cl13       -1.5465    2.3709   50.9778 Cl      1  ZINC000817655807   -0.0500
     14 C14        -4.0511    2.8089   51.9167 C.ar    1  ZINC000817655807    0.0600
     15 O15        -4.4749    2.3310   50.7147 O.3     1  ZINC000817655807   -0.2900
     16 C16        -5.8438    1.9190   50.6324 C.3     1  ZINC000817655807    0.0200
     17 C17        -6.7122    3.0041   51.2834 C.3     1  ZINC000817655807    0.0200
     18 O18        -6.3029    3.1470   52.6479 O.3     1  ZINC000817655807   -0.3000
     19 C19        -4.9638    3.2211   52.8802 C.ar    1  ZINC000817655807    0.0600
     20 C20        -4.5100    3.7094   54.0965 C.ar    1  ZINC000817655807   -0.0900
     21 C21         0.0638    3.3735   56.9077 C.3     1  ZINC000817655807    0.1100
     22 O22         1.6768    2.1447   58.4181 O.3     1  ZINC000817655807   -0.3000
     23 C23         2.2821    2.6336   59.5109 C.2     1  ZINC000817655807    0.6400
     24 O24         3.3877    2.2808   59.8710 O.2     1  ZINC000817655807   -0.5100
     25 H25         2.9532    3.8998   61.6923 H       1  ZINC000817655807    0.0900
     26 H26         1.9763    5.3104   61.2187 H       1  ZINC000817655807    0.0700
     27 H27         1.2496    4.0123   62.1961 H       1  ZINC000817655807    0.0700
     28 H28        -0.5666    3.4575   60.1059 H       1  ZINC000817655807    0.1000
     29 H29         0.1730    4.7620   59.1219 H       1  ZINC000817655807    0.1000
     30 H30        -0.5460    0.8923   57.5908 H       1  ZINC000817655807    0.1100
     31 H31        -1.4330    1.7130   58.9501 H       1  ZINC000817655807    0.1000
     32 H32        -3.3792    5.0563   56.0518 H       1  ZINC000817655807    0.1100
     33 H33        -1.6960    4.8114   55.5273 H       1  ZINC000817655807    0.1100
     34 H34        -1.1853    3.4406   53.5915 H       1  ZINC000817655807    0.1400
     35 H35        -6.1289    1.7979   49.5874 H       1  ZINC000817655807    0.1300
     36 H36        -5.9762    0.9755   51.1619 H       1  ZINC000817655807    0.0800
     37 H37        -6.5753    3.9491   50.7577 H       1  ZINC000817655807    0.0800
     38 H38        -7.7607    2.7089   51.2432 H       1  ZINC000817655807    0.1300
     39 H39        -5.2177    4.0283   54.8474 H       1  ZINC000817655807    0.1400
     40 H40         0.1275    4.4612   56.8780 H       1  ZINC000817655807    0.1000
     41 H41         0.5893    2.8918   56.0831 H       1  ZINC000817655807    0.1100
@<TRIPOS>BOND
     1     1     2    1
     2     1    25    1
     3     1    26    1
     4     1    27    1
     5     2    23   am
     6     2     3    1
     7     3     4    1
     8     3    28    1
     9     3    29    1
    10     4    21    1
    11     4     5    1
    12     4    22    1
    13     5     6    1
    14     5    30    1
    15     5    31    1
    16     6     7   am
    17     6    21    1
    18     7     8    2
    19     7     9    1
    20     9    10    1
    21     9    32    1
    22     9    33    1
    23    10    20   ar
    24    10    11   ar
    25    11    12   ar
    26    11    34    1
    27    12    13    1
    28    12    14   ar
    29    14    19   ar
    30    14    15    1
    31    15    16    1
    32    16    17    1
    33    16    35    1
    34    16    36    1
    35    17    18    1
    36    17    37    1
    37    17    38    1
    38    18    19    1
    39    19    20   ar
    40    20    39    1
    41    21    40    1
    42    21    41    1
    43    22    23    1
    44    23    24    2
@<TRIPOS>SUBSTRUCTURE
     1 ZINC000817655807        1 TEMP              0 ****  ****    0 ROOT


##########                                Name:    ZINC001060620810
##########                DOCK_Rotatable_Bonds:                   5
##########                         Heavy_Atoms:                  24
##########                    Molecular_Weight:             332.421
##########                DOCK_Rotatable_Bonds:                   5
##########                       Formal_Charge:           0.0299998
##########                     HBond_Acceptors:                   6
##########                        HBond_Donors:                   2
##########                         Heavy_Atoms:                  24
##########                          Grid_Score:          -27.095331
##########                     Grid_vdw_energy:          -27.869331
##########                      Grid_es_energy:            0.774001
##########           Internal_energy_repulsive:            8.328671

@<TRIPOS>MOLECULE
ZINC001060620810
 49 52 1 0 0
SMALL
USER_CHARGES


@<TRIPOS>ATOM
      1 O1         -6.4321    1.2487   53.6846 O.2     1  ZINC001060620810   -0.5400
      2 C2         -6.7403    1.7401   52.6194 C.2     1  ZINC001060620810    0.5500
      3 N3         -8.0381    1.8206   52.2648 N.am    1  ZINC001060620810   -0.7200
      4 C4         -9.0765    1.3163   53.1667 C.3     1  ZINC001060620810    0.1400
      5 C5        -10.3794    2.0801   52.9219 C.3     1  ZINC001060620810   -0.1300
      6 C6        -11.4641    1.5534   53.8637 C.3     1  ZINC001060620810   -0.1300
      7 C7        -11.6891    0.0632   53.5998 C.3     1  ZINC001060620810    0.1600
      8 N8        -12.1137   -0.1280   52.2108 N.pl3   1  ZINC001060620810   -0.6900
      9 C9        -13.4564   -0.0462   51.8793 C.ar    1  ZINC001060620810    0.5600
     10 N10       -14.3454    0.1759   52.8357 N.ar    1  ZINC001060620810   -0.5400
     11 C11       -15.6349    0.2646   52.5536 C.ar    1  ZINC001060620810    0.1700
     12 C12       -16.0518    0.1113   51.2388 C.ar    1  ZINC001060620810   -0.0700
     13 F13       -17.3611    0.1910   50.9155 F       1  ZINC001060620810   -0.1300
     14 C14       -15.0934   -0.1254   50.2633 C.ar    1  ZINC001060620810    0.1800
     15 N15       -13.8199   -0.1972   50.6147 N.ar    1  ZINC001060620810   -0.5500
     16 C16       -10.3862   -0.7006   53.8446 C.3     1  ZINC001060620810   -0.1200
     17 C17        -9.3016   -0.1738   52.9027 C.3     1  ZINC001060620810   -0.1300
     18 C18        -5.6721    2.2605   51.6925 C.3     1  ZINC001060620810   -0.1500
     19 C19        -5.7261    1.7467   50.2597 C.3     1  ZINC001060620810   -0.1500
     20 C20        -4.6590    1.2369   51.2044 C.3     1  ZINC001060620810   -0.1100
     21 H21        -4.7807    0.2103   51.5494 H       1  ZINC001060620810    0.1100
     22 C22        -3.2160    1.6443   50.9237 C.3     1  ZINC001060620810   -0.0900
     23 C23        -2.8844    2.9592   51.6297 C.3     1  ZINC001060620810   -0.1200
     24 C24        -3.9328    4.0047   51.2327 C.3     1  ZINC001060620810   -0.1200
     25 C25        -5.2362    3.6912   51.9673 C.3     1  ZINC001060620810   -0.0800
     26 H26        -8.2844    2.2124   51.4123 H       1  ZINC001060620810    0.4000
     27 H27        -8.7606    1.4586   54.2002 H       1  ZINC001060620810    0.0900
     28 H28       -10.2192    3.1417   53.1099 H       1  ZINC001060620810    0.0700
     29 H29       -10.6954    1.9378   51.8884 H       1  ZINC001060620810    0.0600
     30 H30       -12.3923    2.0976   53.6894 H       1  ZINC001060620810    0.0700
     31 H31       -11.1482    1.6957   54.8972 H       1  ZINC001060620810    0.0800
     32 H32       -12.4618   -0.3120   54.2709 H       1  ZINC001060620810    0.1000
     33 H33       -11.4547   -0.3118   51.5232 H       1  ZINC001060620810    0.4100
     34 H34       -16.3546    0.4494   53.3373 H       1  ZINC001060620810    0.1800
     35 H35       -15.3834   -0.2498   49.2306 H       1  ZINC001060620810    0.1800
     36 H36       -10.5466   -1.7621   53.6566 H       1  ZINC001060620810    0.0800
     37 H37       -10.0703   -0.5582   54.8781 H       1  ZINC001060620810    0.0900
     38 H38        -9.6175   -0.3161   51.8693 H       1  ZINC001060620810    0.0700
     39 H39        -8.3734   -0.7180   53.0771 H       1  ZINC001060620810    0.0800
     40 H40        -6.5307    1.0583   50.0012 H       1  ZINC001060620810    0.1000
     41 H41        -5.4170    2.4289   49.4677 H       1  ZINC001060620810    0.1100
     42 H42        -3.0990    1.7726   49.8477 H       1  ZINC001060620810    0.0700
     43 H43        -2.5359    0.8663   51.2709 H       1  ZINC001060620810    0.0700
     44 H44        -1.8947    3.2990   51.3245 H       1  ZINC001060620810    0.0700
     45 H45        -2.9063    2.8106   52.7093 H       1  ZINC001060620810    0.0700
     46 H46        -4.1006    3.9644   50.1564 H       1  ZINC001060620810    0.0700
     47 H47        -3.5838    4.9982   51.5144 H       1  ZINC001060620810    0.0700
     48 H48        -6.0139    4.3756   51.6282 H       1  ZINC001060620810    0.0700
     49 H49        -5.0849    3.8216   53.0389 H       1  ZINC001060620810    0.0700
@<TRIPOS>BOND
     1     1     2    2
     2     2     3   am
     3     2    18    1
     4     3     4    1
     5     3    26    1
     6     4    17    1
     7     4     5    1
     8     4    27    1
     9     5     6    1
    10     5    28    1
    11     5    29    1
    12     6     7    1
    13     6    30    1
    14     6    31    1
    15     7     8    1
    16     7    16    1
    17     7    32    1
    18     8     9    1
    19     8    33    1
    20     9    15   ar
    21     9    10   ar
    22    10    11   ar
    23    11    12   ar
    24    11    34    1
    25    12    13    1
    26    12    14   ar
    27    14    15   ar
    28    14    35    1
    29    16    17    1
    30    16    36    1
    31    16    37    1
    32    17    38    1
    33    17    39    1
    34    18    20    1
    35    18    25    1
    36    18    19    1
    37    19    20    1
    38    19    40    1
    39    19    41    1
    40    20    21    1
    41    20    22    1
    42    22    23    1
    43    22    42    1
    44    22    43    1
    45    23    24    1
    46    23    44    1
    47    23    45    1
    48    24    25    1
    49    24    46    1
    50    24    47    1
    51    25    48    1
    52    25    49    1
@<TRIPOS>SUBSTRUCTURE
     1 ZINC001060620810        1 TEMP              0 ****  ****    0 ROOT


##########                                Name:    ZINC000643274279
##########                DOCK_Rotatable_Bonds:                   6
##########                         Heavy_Atoms:                  29
##########                    Molecular_Weight:             392.454
##########                DOCK_Rotatable_Bonds:                   6
##########                       Formal_Charge:         -0.00999939
##########                     HBond_Acceptors:                   6
##########                        HBond_Donors:                   2
##########                         Heavy_Atoms:                  29
##########                          Grid_Score:          -27.074326
##########                     Grid_vdw_energy:          -26.217888
##########                      Grid_es_energy:           -0.856437
##########           Internal_energy_repulsive:           12.727418

@<TRIPOS>MOLECULE
ZINC000643274279
 53 56 1 0 0
SMALL
USER_CHARGES


@<TRIPOS>ATOM
      1 O1         -7.7458    1.3957   53.9740 O.2     1  ZINC000643274279   -0.4900
      2 C2         -8.0412    0.9312   52.8922 C.2     1  ZINC000643274279    0.5100
      3 N3         -7.4113    1.3592   51.7802 N.am    1  ZINC000643274279   -0.6400
      4 C4         -6.4220    2.3421   51.8721 C.ar    1  ZINC000643274279    0.1300
      5 C5         -6.7412    3.6042   52.3606 C.ar    1  ZINC000643274279   -0.1000
      6 C6         -5.7706    4.5877   52.4442 C.ar    1  ZINC000643274279   -0.1000
      7 C7         -4.4823    4.3161   52.0399 C.ar    1  ZINC000643274279   -0.0600
      8 C8         -3.4314    5.4121   52.0639 C.3     1  ZINC000643274279   -0.0900
      9 C9         -2.3862    5.0830   53.1236 C.3     1  ZINC000643274279   -0.1200
     10 C10        -1.2791    4.2047   52.5604 C.3     1  ZINC000643274279   -0.1100
     11 C11        -1.7015    2.7852   52.2772 C.3     1  ZINC000643274279   -0.1600
     12 C12        -2.7513    2.7622   51.1833 C.2     1  ZINC000643274279    0.4100
     13 O13        -2.4558    2.5180   50.0330 O.2     1  ZINC000643274279   -0.4400
     14 C14        -4.1441    3.0470   51.5705 C.ar    1  ZINC000643274279   -0.1300
     15 C15        -5.1223    2.0547   51.4811 C.ar    1  ZINC000643274279   -0.1000
     16 C16        -9.0985   -0.1192   52.7942 C.2     1  ZINC000643274279    0.5200
     17 O17        -8.8914   -1.1308   52.1566 O.2     1  ZINC000643274279   -0.5000
     18 N18       -10.2823    0.0564   53.4138 N.am    1  ZINC000643274279   -0.5800
     19 C19       -11.4088   -0.8946   53.4001 C.3     1  ZINC000643274279    0.0900
     20 C20       -12.2171   -0.5703   54.6812 C.3     1  ZINC000643274279   -0.1400
     21 C21       -12.0911    0.9748   54.7463 C.3     1  ZINC000643274279   -0.1200
     22 C22       -10.6620    1.2253   54.2207 C.3     1  ZINC000643274279    0.1800
     23 H23        -9.9743    1.3431   55.0582 H       1  ZINC000643274279    0.0900
     24 C24       -10.6413    2.4642   53.3629 C.ar    1  ZINC000643274279   -0.1000
     25 C25       -10.2269    3.6688   53.9001 C.ar    1  ZINC000643274279   -0.0900
     26 C26       -10.2071    4.8059   53.1158 C.ar    1  ZINC000643274279   -0.1400
     27 C27       -10.6029    4.7382   51.7879 C.ar    1  ZINC000643274279    0.1100
     28 O28       -10.5838    5.8552   51.0142 O.3     1  ZINC000643274279   -0.5000
     29 C29       -11.0178    3.5281   51.2511 C.ar    1  ZINC000643274279   -0.1400
     30 C30       -11.0313    2.3929   52.0382 C.ar    1  ZINC000643274279   -0.0900
     31 H31        -7.6447    0.9852   50.9163 H       1  ZINC000643274279    0.4200
     32 H32        -7.7516    3.8184   52.6761 H       1  ZINC000643274279    0.1400
     33 H33        -6.0232    5.5661   52.8253 H       1  ZINC000643274279    0.1400
     34 H34        -2.9515    5.4778   51.0875 H       1  ZINC000643274279    0.0800
     35 H35        -3.9044    6.3647   52.3027 H       1  ZINC000643274279    0.0800
     36 H36        -1.9508    6.0108   53.4949 H       1  ZINC000643274279    0.0800
     37 H37        -2.8689    4.5616   53.9503 H       1  ZINC000643274279    0.0700
     38 H38        -0.9202    4.6512   51.6331 H       1  ZINC000643274279    0.0700
     39 H39        -0.4550    4.1855   53.2737 H       1  ZINC000643274279    0.0800
     40 H40        -0.8344    2.2069   51.9582 H       1  ZINC000643274279    0.0900
     41 H41        -2.1145    2.3433   53.1840 H       1  ZINC000643274279    0.0900
     42 H42        -4.8702    1.0734   51.1072 H       1  ZINC000643274279    0.1300
     43 H43       -12.0244   -0.7406   52.5139 H       1  ZINC000643274279    0.0800
     44 H44       -11.0400   -1.9198   53.4335 H       1  ZINC000643274279    0.1000
     45 H45       -13.2585   -0.8732   54.5731 H       1  ZINC000643274279    0.0900
     46 H46       -11.7651   -1.0364   55.5567 H       1  ZINC000643274279    0.0800
     47 H47       -12.8315    1.4495   54.1025 H       1  ZINC000643274279    0.0800
     48 H48       -12.1890    1.3267   55.7733 H       1  ZINC000643274279    0.0900
     49 H49        -9.9189    3.7211   54.9340 H       1  ZINC000643274279    0.1200
     50 H50        -9.8840    5.7469   53.5362 H       1  ZINC000643274279    0.1300
     51 H51       -10.8775    5.7088   50.1046 H       1  ZINC000643274279    0.3900
     52 H52       -11.3268    3.4729   50.2177 H       1  ZINC000643274279    0.1300
     53 H53       -11.3539    1.4507   51.6207 H       1  ZINC000643274279    0.1300
@<TRIPOS>BOND
     1     1     2    2
     2     2     3   am
     3     2    16    1
     4     3     4    1
     5     3    31    1
     6     4    15   ar
     7     4     5   ar
     8     5     6   ar
     9     5    32    1
    10     6     7   ar
    11     6    33    1
    12     7    14   ar
    13     7     8    1
    14     8     9    1
    15     8    34    1
    16     8    35    1
    17     9    10    1
    18     9    36    1
    19     9    37    1
    20    10    11    1
    21    10    38    1
    22    10    39    1
    23    11    12    1
    24    11    40    1
    25    11    41    1
    26    12    13    2
    27    12    14    1
    28    14    15   ar
    29    15    42    1
    30    16    17    2
    31    16    18   am
    32    18    22    1
    33    18    19    1
    34    19    20    1
    35    19    43    1
    36    19    44    1
    37    20    21    1
    38    20    45    1
    39    20    46    1
    40    21    22    1
    41    21    47    1
    42    21    48    1
    43    22    23    1
    44    22    24    1
    45    24    30   ar
    46    24    25   ar
    47    25    26   ar
    48    25    49    1
    49    26    27   ar
    50    26    50    1
    51    27    28    1
    52    27    29   ar
    53    28    51    1
    54    29    30   ar
    55    29    52    1
    56    30    53    1
@<TRIPOS>SUBSTRUCTURE
     1 ZINC000643274279        1 TEMP              0 ****  ****    0 ROOT


##########                                Name:    ZINC001707162141
##########                DOCK_Rotatable_Bonds:                   9
##########                         Heavy_Atoms:                  25
##########                    Molecular_Weight:               344.5
##########                DOCK_Rotatable_Bonds:                   9
##########                       Formal_Charge:          -0.0299999
##########                     HBond_Acceptors:                   5
##########                        HBond_Donors:                   1
##########                         Heavy_Atoms:                  25
##########                          Grid_Score:          -27.039967
##########                     Grid_vdw_energy:          -26.154058
##########                      Grid_es_energy:           -0.885908
##########           Internal_energy_repulsive:           83.667908

@<TRIPOS>MOLECULE
ZINC001707162141
 57 59 1 0 0
SMALL
USER_CHARGES


@<TRIPOS>ATOM
      1 C1          2.7755    2.2769   52.2932 C.3     1  ZINC001707162141   -0.1800
      2 C2          1.4868    2.3804   51.4750 C.3     1  ZINC001707162141    0.1700
      3 H3          1.0080    1.4024   51.4260 H       1  ZINC001707162141    0.1000
      4 N4          0.5765    3.3399   52.1142 N.3     1  ZINC001707162141   -0.6400
      5 C5         -0.7871    3.2050   51.5846 C.3     1  ZINC001707162141    0.0700
      6 C6         -1.7046    4.2163   52.2747 C.3     1  ZINC001707162141    0.1500
      7 H7         -1.3977    5.2282   52.0100 H       1  ZINC001707162141    0.0700
      8 C8         -1.6218    4.0321   53.7932 C.3     1  ZINC001707162141   -0.1200
      9 C9         -2.6426    4.9490   54.4708 C.3     1  ZINC001707162141   -0.0900
     10 H10        -2.4385    5.9842   54.1973 H       1  ZINC001707162141    0.0700
     11 C11        -2.5390    4.7931   55.9893 C.3     1  ZINC001707162141   -0.1500
     12 C12        -4.0533    4.5698   54.0145 C.3     1  ZINC001707162141   -0.1300
     13 C13        -4.1637    4.7601   52.4985 C.3     1  ZINC001707162141    0.1100
     14 N14        -3.0924    3.9947   51.8465 N.am    1  ZINC001707162141   -0.6100
     15 C15        -3.3775    3.1057   50.8743 C.2     1  ZINC001707162141    0.5100
     16 O16        -2.4842    2.4800   50.3438 O.2     1  ZINC001707162141   -0.4800
     17 C17        -4.8061    2.8892   50.4465 C.3     1  ZINC001707162141   -0.1400
     18 C18        -5.5134    1.9934   51.4654 C.3     1  ZINC001707162141   -0.0900
     19 C19        -6.9725    1.7994   51.0478 C.3     1  ZINC001707162141   -0.0900
     20 C20        -7.6734    0.8839   52.0535 C.3     1  ZINC001707162141   -0.1500
     21 C21        -9.0517    1.3143   52.5596 C.3     1  ZINC001707162141   -0.1800
     22 C22        -7.8360    1.3999   53.4847 C.3     1  ZINC001707162141   -0.1800
     23 C23         1.8135    2.8502   50.0807 C.ar    1  ZINC001707162141    0.3500
     24 N24         2.1249    1.9598   49.1604 N.ar    1  ZINC001707162141   -0.5000
     25 C25         2.4121    2.3346   47.9242 C.ar    1  ZINC001707162141    0.1500
     26 C26         2.3931    3.6837   47.6072 C.ar    1  ZINC001707162141   -0.2400
     27 C27         2.0665    4.5904   48.6033 C.ar    1  ZINC001707162141    0.1500
     28 N28         1.7855    4.1409   49.8158 N.ar    1  ZINC001707162141   -0.5200
     29 H29         2.5392    1.9372   53.3016 H       1  ZINC001707162141    0.0600
     30 H30         3.4509    1.5650   51.8188 H       1  ZINC001707162141    0.0600
     31 H31         3.2542    3.2549   52.3422 H       1  ZINC001707162141    0.0600
     32 H32         0.5867    3.2346   53.1176 H       1  ZINC001707162141    0.3300
     33 H33        -0.7802    3.3941   50.5111 H       1  ZINC001707162141    0.1000
     34 H34        -1.1520    2.1955   51.7734 H       1  ZINC001707162141    0.0200
     35 H35        -1.8402    2.9946   54.0463 H       1  ZINC001707162141    0.0700
     36 H36        -0.6192    4.2874   54.1366 H       1  ZINC001707162141    0.0700
     37 H37        -2.7436    3.7581   56.2631 H       1  ZINC001707162141    0.0500
     38 H38        -1.5343    5.0632   56.3145 H       1  ZINC001707162141    0.0600
     39 H39        -3.2652    5.4470   56.4720 H       1  ZINC001707162141    0.0600
     40 H40        -4.7815    5.2078   54.5153 H       1  ZINC001707162141    0.0700
     41 H41        -4.2489    3.5272   54.2655 H       1  ZINC001707162141    0.0700
     42 H42        -4.0583    5.8171   52.2543 H       1  ZINC001707162141    0.0600
     43 H43        -5.1327    4.3984   52.1543 H       1  ZINC001707162141    0.0800
     44 H44        -5.3181    3.8498   50.3901 H       1  ZINC001707162141    0.0800
     45 H45        -4.8236    2.4101   49.4676 H       1  ZINC001707162141    0.0800
     46 H46        -5.0151    1.0248   51.5054 H       1  ZINC001707162141    0.0700
     47 H47        -5.4762    2.4621   52.4488 H       1  ZINC001707162141    0.0700
     48 H48        -7.4754    2.7661   51.0246 H       1  ZINC001707162141    0.0600
     49 H49        -7.0097    1.3466   50.0569 H       1  ZINC001707162141    0.0600
     50 H50        -7.4965   -0.1834   51.9205 H       1  ZINC001707162141    0.1000
     51 H51        -9.4590    2.2496   52.1759 H       1  ZINC001707162141    0.0900
     52 H52        -9.7818    0.5300   52.7594 H       1  ZINC001707162141    0.0900
     53 H53        -7.7664    0.6722   54.2931 H       1  ZINC001707162141    0.0900
     54 H54        -7.4437    2.3917   53.7096 H       1  ZINC001707162141    0.0900
     55 H55         2.6625    1.5996   47.1736 H       1  ZINC001707162141    0.1600
     56 H56         2.6269    4.0204   46.6080 H       1  ZINC001707162141    0.1400
     57 H57         2.0420    5.6494   48.3928 H       1  ZINC001707162141    0.1600
@<TRIPOS>BOND
     1     1     2    1
     2     1    29    1
     3     1    30    1
     4     1    31    1
     5     2     3    1
     6     2     4    1
     7     2    23    1
     8     4     5    1
     9     4    32    1
    10     5     6    1
    11     5    33    1
    12     5    34    1
    13     6     7    1
    14     6    14    1
    15     6     8    1
    16     8     9    1
    17     8    35    1
    18     8    36    1
    19     9    10    1
    20     9    11    1
    21     9    12    1
    22    11    37    1
    23    11    38    1
    24    11    39    1
    25    12    13    1
    26    12    40    1
    27    12    41    1
    28    13    14    1
    29    13    42    1
    30    13    43    1
    31    14    15   am
    32    15    16    2
    33    15    17    1
    34    17    18    1
    35    17    44    1
    36    17    45    1
    37    18    19    1
    38    18    46    1
    39    18    47    1
    40    19    20    1
    41    19    48    1
    42    19    49    1
    43    20    22    1
    44    20    21    1
    45    20    50    1
    46    21    22    1
    47    21    51    1
    48    21    52    1
    49    22    53    1
    50    22    54    1
    51    23    28   ar
    52    23    24   ar
    53    24    25   ar
    54    25    26   ar
    55    25    55    1
    56    26    27   ar
    57    26    56    1
    58    27    28   ar
    59    27    57    1
@<TRIPOS>SUBSTRUCTURE
     1 ZINC001707162141        1 TEMP              0 ****  ****    0 ROOT


##########                                Name:    ZINC000279974681
##########                DOCK_Rotatable_Bonds:                   4
##########                         Heavy_Atoms:                  23
##########                    Molecular_Weight:              338.79
##########                DOCK_Rotatable_Bonds:                   4
##########                       Formal_Charge:           0.0100008
##########                     HBond_Acceptors:                   7
##########                        HBond_Donors:                   1
##########                         Heavy_Atoms:                  23
##########                          Grid_Score:          -27.033897
##########                     Grid_vdw_energy:          -26.087400
##########                      Grid_es_energy:           -0.946497
##########           Internal_energy_repulsive:           15.051738

@<TRIPOS>MOLECULE
ZINC000279974681
 42 45 1 0 0
SMALL
USER_CHARGES


@<TRIPOS>ATOM
      1 C1          4.1607    1.9610   52.4893 C.3     1  ZINC000279974681   -0.1400
      2 C2          3.2111    2.3455   51.3529 C.3     1  ZINC000279974681    0.0700
      3 H3          2.9247    3.3922   51.4563 H       1  ZINC000279974681    0.0600
      4 C4          1.9586    1.4637   51.4118 C.3     1  ZINC000279974681    0.1000
      5 N5          1.1527    1.7213   50.2079 N.am    1  ZINC000279974681   -0.6300
      6 C6         -0.1621    2.0034   50.3003 C.2     1  ZINC000279974681    0.7100
      7 O7         -0.8111    2.2132   49.2937 O.2     1  ZINC000279974681   -0.5600
      8 N8         -0.7574    2.0528   51.5085 N.am    1  ZINC000279974681   -0.6700
      9 C9         -2.1249    2.3463   51.6045 C.ar    1  ZINC000279974681    0.2000
     10 C10        -3.0597    1.4916   51.0378 C.ar    1  ZINC000279974681   -0.1200
     11 C11        -4.4107    1.7816   51.1333 C.ar    1  ZINC000279974681    0.0700
     12 C12        -4.8288    2.9315   51.7984 C.ar    1  ZINC000279974681    0.0200
     13 C13        -3.8928    3.7832   52.3626 C.ar    1  ZINC000279974681   -0.0700
     14 C14        -2.5447    3.4901   52.2721 C.ar    1  ZINC000279974681   -0.0700
     15 Cl15       -1.3750    4.5596   52.9801 Cl      1  ZINC000279974681   -0.0500
     16 O16        -6.1929    2.9893   51.7537 O.3     1  ZINC000279974681   -0.3000
     17 C17        -6.5820    2.0819   50.7057 C.3     1  ZINC000279974681    0.2100
     18 O18        -5.5119    1.1191   50.6723 O.3     1  ZINC000279974681   -0.3000
     19 C19         1.8245    1.6623   48.9001 C.3     1  ZINC000279974681    0.0800
     20 C20         3.0837    2.5344   48.9636 C.3     1  ZINC000279974681    0.1100
     21 H21         2.7966    3.5818   49.0573 H       1  ZINC000279974681    0.0700
     22 C22         3.9038    2.3416   47.6865 C.3     1  ZINC000279974681   -0.1600
     23 C23         3.2837    1.5005   46.5688 C.3     1  ZINC000279974681   -0.1700
     24 C24         3.3958    3.0183   46.4118 C.3     1  ZINC000279974681   -0.1600
     25 O25         3.8660    2.1514   50.0971 O.3     1  ZINC000279974681   -0.3600
     26 H26         5.0518    2.5872   52.4458 H       1  ZINC000279974681    0.0700
     27 H27         3.6601    2.1076   53.4464 H       1  ZINC000279974681    0.0800
     28 H28         4.4466    0.9143   52.3854 H       1  ZINC000279974681    0.0700
     29 H29         2.2499    0.4138   51.4408 H       1  ZINC000279974681    0.0800
     30 H30         1.3784    1.7091   52.3014 H       1  ZINC000279974681    0.1100
     31 H31        -0.2396    1.8854   52.3114 H       1  ZINC000279974681    0.4100
     32 H32        -2.7337    0.6004   50.5220 H       1  ZINC000279974681    0.1800
     33 H33        -4.2171    4.6751   52.8781 H       1  ZINC000279974681    0.1500
     34 H34        -7.5266    1.5965   50.9505 H       1  ZINC000279974681    0.1400
     35 H35        -6.6552    2.6063   49.7528 H       1  ZINC000279974681    0.0900
     36 H36         2.1023    0.6323   48.6762 H       1  ZINC000279974681    0.0900
     37 H37         1.1556    2.0390   48.1263 H       1  ZINC000279974681    0.0900
     38 H38         4.9829    2.2767   47.8260 H       1  ZINC000279974681    0.1100
     39 H39         3.9548    0.8820   45.9729 H       1  ZINC000279974681    0.1000
     40 H40         2.2914    1.0846   46.7434 H       1  ZINC000279974681    0.1000
     41 H41         2.4773    3.6009   46.4830 H       1  ZINC000279974681    0.1000
     42 H42         4.1407    3.3983   45.7126 H       1  ZINC000279974681    0.1000
@<TRIPOS>BOND
     1     1     2    1
     2     1    26    1
     3     1    27    1
     4     1    28    1
     5     2     3    1
     6     2    25    1
     7     2     4    1
     8     4     5    1
     9     4    29    1
    10     4    30    1
    11     5     6   am
    12     5    19    1
    13     6     7    2
    14     6     8   am
    15     8     9    1
    16     8    31    1
    17     9    14   ar
    18     9    10   ar
    19    10    11   ar
    20    10    32    1
    21    11    18    1
    22    11    12   ar
    23    12    13   ar
    24    12    16    1
    25    13    14   ar
    26    13    33    1
    27    14    15    1
    28    16    17    1
    29    17    18    1
    30    17    34    1
    31    17    35    1
    32    19    20    1
    33    19    36    1
    34    19    37    1
    35    20    21    1
    36    20    22    1
    37    20    25    1
    38    22    24    1
    39    22    23    1
    40    22    38    1
    41    23    24    1
    42    23    39    1
    43    23    40    1
    44    24    41    1
    45    24    42    1
@<TRIPOS>SUBSTRUCTURE
     1 ZINC000279974681        1 TEMP              0 ****  ****    0 ROOT


##########                                Name:    ZINC000915315870
##########                DOCK_Rotatable_Bonds:                   4
##########                         Heavy_Atoms:                  24
##########                    Molecular_Weight:             357.381
##########                DOCK_Rotatable_Bonds:                   4
##########                       Formal_Charge:           0.0300002
##########                     HBond_Acceptors:                   9
##########                        HBond_Donors:                   1
##########                         Heavy_Atoms:                  24
##########                          Grid_Score:          -27.015686
##########                     Grid_vdw_energy:          -26.476360
##########                      Grid_es_energy:           -0.539326
##########           Internal_energy_repulsive:           36.894688

@<TRIPOS>MOLECULE
ZINC000915315870
 41 43 1 0 0
SMALL
USER_CHARGES


@<TRIPOS>ATOM
      1 C1         -9.1675    4.0427   55.9354 C.3     1  ZINC000915315870    0.0300
      2 O2         -9.2633    4.3104   54.5349 O.3     1  ZINC000915315870   -0.3200
      3 C3         -8.4474    3.5972   53.7129 C.ar    1  ZINC000915315870    0.0800
      4 C4         -7.5775    2.6542   54.2434 C.ar    1  ZINC000915315870    0.0900
      5 F5         -7.5405    2.4431   55.5773 F       1  ZINC000915315870   -0.1100
      6 C6         -6.7488    1.9302   53.4044 C.ar    1  ZINC000915315870   -0.0500
      7 C7         -6.7860    2.1456   52.0393 C.ar    1  ZINC000915315870   -0.6300
      8 S8         -5.7287    1.2221   50.9744 S.o2    1  ZINC000915315870    2.7000
      9 O9         -5.9566   -0.1484   51.2726 O.2     1  ZINC000915315870   -0.9400
     10 O10        -5.8897    1.7719   49.6740 O.2     1  ZINC000915315870   -0.9400
     11 N11        -4.1699    1.5467   51.4296 N.am    1  ZINC000915315870   -1.1100
     12 C12        -3.6644    2.9210   51.3836 C.3     1  ZINC000915315870    0.2400
     13 H13        -4.2233    3.4938   50.6437 H       1  ZINC000915315870    0.0900
     14 C14        -3.8134    3.5737   52.7637 C.3     1  ZINC000915315870   -0.1400
     15 C15        -3.0710    4.9116   52.7849 C.3     1  ZINC000915315870   -0.1100
     16 C16        -1.5573    4.6644   52.7861 C.3     1  ZINC000915315870   -0.0400
     17 C17        -1.2350    3.7068   51.6647 C.2     1  ZINC000915315870    0.0900
     18 N18        -0.0778    3.4590   51.1235 N.2     1  ZINC000915315870   -0.2900
     19 N19        -0.2634    2.5006   50.1157 N.pl3   1  ZINC000915315870   -0.3800
     20 C20         0.7829    1.9400   49.2571 C.3     1  ZINC000915315870    0.1000
     21 C21        -1.5775    2.1849   50.0766 C.2     1  ZINC000915315870    0.0800
     22 C22        -2.1998    2.9128   51.0210 C.2     1  ZINC000915315870   -0.2500
     23 C23        -7.6514    3.0836   51.5079 C.ar    1  ZINC000915315870   -0.0500
     24 C24        -8.4868    3.8067   52.3410 C.ar    1  ZINC000915315870    0.1000
     25 F25        -9.3323    4.7232   51.8210 F       1  ZINC000915315870   -0.1100
     26 H26        -9.8701    4.6775   56.4754 H       1  ZINC000915315870    0.1100
     27 H27        -9.4062    2.9958   56.1223 H       1  ZINC000915315870    0.0600
     28 H28        -8.1535    4.2508   56.2767 H       1  ZINC000915315870    0.0500
     29 H29        -6.0718    1.1965   53.8166 H       1  ZINC000915315870    0.1700
     30 H30        -3.5915    0.8270   51.7267 H       1  ZINC000915315870    0.4200
     31 H31        -4.8698    3.7419   52.9732 H       1  ZINC000915315870    0.0900
     32 H32        -3.3943    2.9143   53.5238 H       1  ZINC000915315870    0.0800
     33 H33        -3.3429    5.4911   51.9027 H       1  ZINC000915315870    0.0700
     34 H34        -3.3484    5.4660   53.6814 H       1  ZINC000915315870    0.0800
     35 H35        -1.0309    5.6057   52.6286 H       1  ZINC000915315870    0.0800
     36 H36        -1.2565    4.2292   53.7392 H       1  ZINC000915315870    0.0900
     37 H37         1.2020    1.0511   49.7283 H       1  ZINC000915315870    0.0800
     38 H38         0.3552    1.6718   48.2911 H       1  ZINC000915315870    0.0900
     39 H39         1.5700    2.6802   49.1130 H       1  ZINC000915315870    0.0900
     40 H40        -2.0434    1.4763   49.4078 H       1  ZINC000915315870    0.1700
     41 H41        -7.6785    3.2493   50.4411 H       1  ZINC000915315870    0.1700
@<TRIPOS>BOND
     1     1     2    1
     2     1    26    1
     3     1    27    1
     4     1    28    1
     5     2     3    1
     6     3    24   ar
     7     3     4   ar
     8     4     5    1
     9     4     6   ar
    10     6     7   ar
    11     6    29    1
    12     7     8    1
    13     7    23   ar
    14     8     9    2
    15     8    10    2
    16     8    11   am
    17    11    12    1
    18    11    30    1
    19    12    13    1
    20    12    22    1
    21    12    14    1
    22    14    15    1
    23    14    31    1
    24    14    32    1
    25    15    16    1
    26    15    33    1
    27    15    34    1
    28    16    17    1
    29    16    35    1
    30    16    36    1
    31    17    22    1
    32    17    18    2
    33    18    19    1
    34    19    20    1
    35    19    21    1
    36    20    37    1
    37    20    38    1
    38    20    39    1
    39    21    22    2
    40    21    40    1
    41    23    24   ar
    42    23    41    1
    43    24    25    1
@<TRIPOS>SUBSTRUCTURE
     1 ZINC000915315870        1 TEMP              0 ****  ****    0 ROOT


##########                                Name:    ZINC000545381384
##########                DOCK_Rotatable_Bonds:                   6
##########                         Heavy_Atoms:                  30
##########                    Molecular_Weight:             405.543
##########                DOCK_Rotatable_Bonds:                   6
##########                       Formal_Charge:                0.05
##########                     HBond_Acceptors:                   6
##########                        HBond_Donors:                   1
##########                         Heavy_Atoms:                  30
##########                          Grid_Score:          -27.013372
##########                     Grid_vdw_energy:          -26.559956
##########                      Grid_es_energy:           -0.453417
##########           Internal_energy_repulsive:           15.993151

@<TRIPOS>MOLECULE
ZINC000545381384
 61 64 1 0 0
SMALL
USER_CHARGES


@<TRIPOS>ATOM
      1 C1         -7.8792    1.0691   59.6050 C.3     1  ZINC000545381384   -0.2000
      2 C2         -8.0365    2.4597   58.9867 C.3     1  ZINC000545381384    0.0500
      3 N3         -7.1307    2.5901   57.8376 N.3     1  ZINC000545381384   -0.5300
      4 C4         -6.2769    3.7809   57.9717 C.3     1  ZINC000545381384    0.0500
      5 C5         -5.1233    3.6674   56.9754 C.3     1  ZINC000545381384   -0.0700
      6 C6         -5.6608    3.3646   55.5973 C.ar    1  ZINC000545381384    0.1800
      7 C7         -6.9523    2.8824   55.4200 C.ar    1  ZINC000545381384   -0.0800
      8 C8         -7.8823    2.6444   56.5797 C.3     1  ZINC000545381384    0.0900
      9 C9         -7.4155    2.6088   54.1354 C.ar    1  ZINC000545381384   -0.0700
     10 C10        -8.7829    2.0918   53.9147 C.2     1  ZINC000545381384    0.5800
     11 O11        -9.6954    2.8630   53.6901 O.2     1  ZINC000545381384   -0.4800
     12 N12        -9.0177    0.7656   53.9626 N.am    1  ZINC000545381384   -0.6400
     13 C13       -10.3062    0.2781   53.7531 C.2     1  ZINC000545381384    0.3000
     14 C14       -11.0979    0.5322   52.6748 C.2     1  ZINC000545381384   -0.2700
     15 C15       -12.3046   -0.1475   52.8596 C.2     1  ZINC000545381384    0.1000
     16 C16       -13.4720   -0.1452   51.9066 C.3     1  ZINC000545381384   -0.0300
     17 C17       -14.3784    1.0488   52.2133 C.3     1  ZINC000545381384   -0.0600
     18 C18       -15.5726    1.0413   51.2570 C.3     1  ZINC000545381384   -0.1500
     19 C19       -14.8793    0.9516   53.6556 C.3     1  ZINC000545381384   -0.1400
     20 C20       -13.5894    2.3474   52.0338 C.3     1  ZINC000545381384   -0.1400
     21 N21       -12.2493   -0.7867   53.9998 N.2     1  ZINC000545381384   -0.2700
     22 N22       -10.9999   -0.5420   54.5841 N.pl3   1  ZINC000545381384   -0.3900
     23 C23       -10.5290   -1.0697   55.8670 C.3     1  ZINC000545381384    0.1000
     24 C24        -6.5402    2.8401   53.0462 C.ar    1  ZINC000545381384   -0.0700
     25 C25        -6.9318    2.5911   51.7247 C.ar    1  ZINC000545381384   -0.1100
     26 C26        -6.0578    2.8295   50.7067 C.ar    1  ZINC000545381384   -0.1000
     27 C27        -4.7783    3.3178   50.9638 C.ar    1  ZINC000545381384   -0.1000
     28 C28        -4.3652    3.5694   52.2355 C.ar    1  ZINC000545381384   -0.0900
     29 C29        -5.2400    3.3360   53.3129 C.ar    1  ZINC000545381384    0.1400
     30 N30        -4.8641    3.5724   54.5692 N.ar    1  ZINC000545381384   -0.4600
     31 H31        -8.0917    0.3104   58.8517 H       1  ZINC000545381384    0.0600
     32 H32        -6.8585    0.9458   59.9670 H       1  ZINC000545381384    0.0600
     33 H33        -8.5754    0.9602   60.4366 H       1  ZINC000545381384    0.0700
     34 H34        -9.0660    2.5956   58.6551 H       1  ZINC000545381384    0.0900
     35 H35        -7.7914    3.2179   59.7306 H       1  ZINC000545381384    0.0800
     36 H36        -6.8604    4.6759   57.7556 H       1  ZINC000545381384    0.0500
     37 H37        -5.8807    3.8350   58.9857 H       1  ZINC000545381384    0.0900
     38 H38        -4.5728    4.6079   56.9506 H       1  ZINC000545381384    0.1000
     39 H39        -4.4536    2.8659   57.2869 H       1  ZINC000545381384    0.1000
     40 H40        -8.4071    1.7004   56.4326 H       1  ZINC000545381384    0.0900
     41 H41        -8.6105    3.4539   56.6294 H       1  ZINC000545381384    0.0700
     42 H42        -8.2899    0.1502   54.1430 H       1  ZINC000545381384    0.4100
     43 H43       -10.8393    1.1498   51.8274 H       1  ZINC000545381384    0.1700
     44 H44       -13.1052   -0.0693   50.8830 H       1  ZINC000545381384    0.0800
     45 H45       -14.0374   -1.0698   52.0223 H       1  ZINC000545381384    0.0800
     46 H46       -16.1347    0.1162   51.3848 H       1  ZINC000545381384    0.0500
     47 H47       -16.2184    1.8918   51.4755 H       1  ZINC000545381384    0.0500
     48 H48       -15.2159    1.1106   50.2294 H       1  ZINC000545381384    0.0800
     49 H49       -14.0284    0.9569   54.3369 H       1  ZINC000545381384    0.0600
     50 H50       -15.5250    1.8021   53.8741 H       1  ZINC000545381384    0.0600
     51 H51       -15.4413    0.0264   53.7835 H       1  ZINC000545381384    0.0600
     52 H52       -13.2326    2.4166   51.0061 H       1  ZINC000545381384    0.0500
     53 H53       -14.2351    3.1979   52.2523 H       1  ZINC000545381384    0.0500
     54 H54       -12.7385    2.3526   52.7150 H       1  ZINC000545381384    0.0500
     55 H55       -10.0268   -2.0236   55.7053 H       1  ZINC000545381384    0.0800
     56 H56        -9.8309   -0.3634   56.3162 H       1  ZINC000545381384    0.0800
     57 H57       -11.3786   -1.2149   56.5341 H       1  ZINC000545381384    0.1000
     58 H58        -7.9207    2.2119   51.5135 H       1  ZINC000545381384    0.1300
     59 H59        -6.3604    2.6372   49.6880 H       1  ZINC000545381384    0.1300
     60 H60        -4.1034    3.4991   50.1403 H       1  ZINC000545381384    0.1400
     61 H61        -3.3698    3.9468   52.4174 H       1  ZINC000545381384    0.1400
@<TRIPOS>BOND
     1     1     2    1
     2     1    31    1
     3     1    32    1
     4     1    33    1
     5     2     3    1
     6     2    34    1
     7     2    35    1
     8     3     8    1
     9     3     4    1
    10     4     5    1
    11     4    36    1
    12     4    37    1
    13     5     6    1
    14     5    38    1
    15     5    39    1
    16     6    30   ar
    17     6     7   ar
    18     7     8    1
    19     7     9   ar
    20     8    40    1
    21     8    41    1
    22     9    10    1
    23     9    24   ar
    24    10    11    2
    25    10    12   am
    26    12    13    1
    27    12    42    1
    28    13    22    1
    29    13    14    2
    30    14    15    1
    31    14    43    1
    32    15    16    1
    33    15    21    2
    34    16    17    1
    35    16    44    1
    36    16    45    1
    37    17    18    1
    38    17    19    1
    39    17    20    1
    40    18    46    1
    41    18    47    1
    42    18    48    1
    43    19    49    1
    44    19    50    1
    45    19    51    1
    46    20    52    1
    47    20    53    1
    48    20    54    1
    49    21    22    1
    50    22    23    1
    51    23    55    1
    52    23    56    1
    53    23    57    1
    54    24    29   ar
    55    24    25   ar
    56    25    26   ar
    57    25    58    1
    58    26    27   ar
    59    26    59    1
    60    27    28   ar
    61    27    60    1
    62    28    29   ar
    63    28    61    1
    64    29    30   ar
@<TRIPOS>SUBSTRUCTURE
     1 ZINC000545381384        1 TEMP              0 ****  ****    0 ROOT


##########                                Name:    ZINC001064463188
##########                DOCK_Rotatable_Bonds:                   6
##########                         Heavy_Atoms:                  25
##########                    Molecular_Weight:             342.441
##########                DOCK_Rotatable_Bonds:                   6
##########                       Formal_Charge:          -0.0100004
##########                     HBond_Acceptors:                   6
##########                        HBond_Donors:                   0
##########                         Heavy_Atoms:                  25
##########                          Grid_Score:          -27.010172
##########                     Grid_vdw_energy:          -25.834715
##########                      Grid_es_energy:           -1.175457
##########           Internal_energy_repulsive:           21.450361

@<TRIPOS>MOLECULE
ZINC001064463188
 51 54 1 0 0
SMALL
USER_CHARGES


@<TRIPOS>ATOM
      1 C1        -14.6800   -0.6619   49.7252 C.3     1  ZINC001064463188    0.0400
      2 O2        -14.4529    0.6254   49.1479 O.3     1  ZINC001064463188   -0.3000
      3 C3        -13.5007    1.3988   49.7238 C.ar    1  ZINC001064463188    0.3900
      4 C4        -13.1652    2.6345   49.1728 C.ar    1  ZINC001064463188   -0.2800
      5 C5        -12.1881    3.3902   49.7935 C.ar    1  ZINC001064463188    0.2000
      6 N6        -11.6033    2.9217   50.8855 N.ar    1  ZINC001064463188   -0.5800
      7 C7        -11.9430    1.7432   51.3865 C.ar    1  ZINC001064463188    0.5300
      8 N8        -11.3095    1.2878   52.5297 N.3     1  ZINC001064463188   -0.4500
      9 C9        -11.9199    1.8576   53.7287 C.3     1  ZINC001064463188    0.0700
     10 C10       -10.8328    2.3081   54.7118 C.3     1  ZINC001064463188   -0.1200
     11 C11       -10.0566    1.1347   55.2786 C.3     1  ZINC001064463188    0.1400
     12 H12        -9.2574    1.4960   55.9259 H       1  ZINC001064463188    0.0900
     13 C13       -10.9653    0.1800   56.0556 C.3     1  ZINC001064463188   -0.1300
     14 C14       -11.4564   -0.8221   54.9959 C.3     1  ZINC001064463188   -0.1300
     15 C15       -10.5006   -0.6539   53.8098 C.3     1  ZINC001064463188    0.1200
     16 H16       -10.0053   -1.6019   53.5997 H       1  ZINC001064463188    0.0900
     17 C17       -11.2779   -0.1982   52.5652 C.3     1  ZINC001064463188    0.0600
     18 N18        -9.4780    0.3779   54.1298 N.am    1  ZINC001064463188   -0.6000
     19 C19        -8.2965    0.5776   53.5127 C.2     1  ZINC001064463188    0.5800
     20 O20        -7.9687   -0.1336   52.5823 O.2     1  ZINC001064463188   -0.5400
     21 C21        -7.4036    1.6557   53.9646 C.2     1  ZINC001064463188   -0.2200
     22 C22        -6.5943    2.2564   53.0970 C.2     1  ZINC001064463188    0.0000
     23 C23        -5.6795    3.3609   53.5600 C.3     1  ZINC001064463188   -0.1300
     24 C24        -6.5919    1.8327   51.6508 C.3     1  ZINC001064463188   -0.1200
     25 C25        -5.3466    2.1547   50.8223 C.3     1  ZINC001064463188   -0.1900
     26 C26        -5.6327    0.7121   51.2445 C.3     1  ZINC001064463188   -0.1600
     27 N27       -12.8782    0.9926   50.8238 N.ar    1  ZINC001064463188   -0.5900
     28 H28       -14.9868   -0.5449   50.7647 H       1  ZINC001064463188    0.0600
     29 H29       -15.4649   -1.1757   49.1703 H       1  ZINC001064463188    0.1000
     30 H30       -13.7613   -1.2469   49.6813 H       1  ZINC001064463188    0.0600
     31 H31       -13.6573    2.9933   48.2809 H       1  ZINC001064463188    0.1500
     32 H32       -11.9044    4.3518   49.3920 H       1  ZINC001064463188    0.1800
     33 H33       -12.5324    2.7149   53.4497 H       1  ZINC001064463188    0.0800
     34 H34       -12.5493    1.1063   54.2055 H       1  ZINC001064463188    0.0600
     35 H35       -10.1416    2.9738   54.1950 H       1  ZINC001064463188    0.0800
     36 H36       -11.3005    2.8530   55.5319 H       1  ZINC001064463188    0.0800
     37 H37       -10.4016   -0.3341   56.8341 H       1  ZINC001064463188    0.0800
     38 H38       -11.8070    0.7214   56.4874 H       1  ZINC001064463188    0.0900
     39 H39       -11.4024   -1.8394   55.3838 H       1  ZINC001064463188    0.0800
     40 H40       -12.4770   -0.5849   54.6956 H       1  ZINC001064463188    0.0800
     41 H41       -12.3016   -0.5687   52.6180 H       1  ZINC001064463188    0.0700
     42 H42       -10.7928   -0.5861   51.6695 H       1  ZINC001064463188    0.0900
     43 H43        -7.4053    1.9594   55.0011 H       1  ZINC001064463188    0.1200
     44 H44        -4.7269    2.9353   53.8755 H       1  ZINC001064463188    0.0800
     45 H45        -5.5115    4.0607   52.7414 H       1  ZINC001064463188    0.0800
     46 H46        -6.1385    3.8855   54.3981 H       1  ZINC001064463188    0.0700
     47 H47        -7.5574    1.8763   51.1466 H       1  ZINC001064463188    0.1400
     48 H48        -5.4926    2.4103   49.7728 H       1  ZINC001064463188    0.1000
     49 H49        -4.5290    2.6729   51.3233 H       1  ZINC001064463188    0.1000
     50 H50        -5.0033    0.2815   52.0232 H       1  ZINC001064463188    0.0900
     51 H51        -5.9668    0.0188   50.4727 H       1  ZINC001064463188    0.1000
@<TRIPOS>BOND
     1     1     2    1
     2     1    28    1
     3     1    29    1
     4     1    30    1
     5     2     3    1
     6     3    27   ar
     7     3     4   ar
     8     4     5   ar
     9     4    31    1
    10     5     6   ar
    11     5    32    1
    12     6     7   ar
    13     7     8    1
    14     7    27   ar
    15     8    17    1
    16     8     9    1
    17     9    10    1
    18     9    33    1
    19     9    34    1
    20    10    11    1
    21    10    35    1
    22    10    36    1
    23    11    12    1
    24    11    18    1
    25    11    13    1
    26    13    14    1
    27    13    37    1
    28    13    38    1
    29    14    15    1
    30    14    39    1
    31    14    40    1
    32    15    16    1
    33    15    17    1
    34    15    18    1
    35    17    41    1
    36    17    42    1
    37    18    19   am
    38    19    20    2
    39    19    21    1
    40    21    22    2
    41    21    43    1
    42    22    23    1
    43    22    24    1
    44    23    44    1
    45    23    45    1
    46    23    46    1
    47    24    26    1
    48    24    25    1
    49    24    47    1
    50    25    26    1
    51    25    48    1
    52    25    49    1
    53    26    50    1
    54    26    51    1
@<TRIPOS>SUBSTRUCTURE
     1 ZINC001064463188        1 TEMP              0 ****  ****    0 ROOT


##########                                Name:    ZINC000252489163
##########                DOCK_Rotatable_Bonds:                   6
##########                         Heavy_Atoms:                  25
##########                    Molecular_Weight:             379.403
##########                DOCK_Rotatable_Bonds:                   6
##########                       Formal_Charge:          0.00999963
##########                     HBond_Acceptors:                  10
##########                        HBond_Donors:                   2
##########                         Heavy_Atoms:                  25
##########                          Grid_Score:          -26.997702
##########                     Grid_vdw_energy:          -26.862604
##########                      Grid_es_energy:           -0.135097
##########           Internal_energy_repulsive:           22.604113

@<TRIPOS>MOLECULE
ZINC000252489163
 45 46 1 0 0
SMALL
USER_CHARGES


@<TRIPOS>ATOM
      1 C1          2.8514    4.1990   54.1124 C.3     1  ZINC000252489163   -0.1100
      2 C2          2.1415    3.4455   53.0172 C.ar    1  ZINC000252489163   -0.0600
      3 C3          0.7614    3.4291   52.9742 C.ar    1  ZINC000252489163   -0.1300
      4 C4          0.1078    2.7349   51.9643 C.ar    1  ZINC000252489163    0.1700
      5 N5         -1.2908    2.7167   51.9175 N.am    1  ZINC000252489163   -0.6800
      6 C6         -1.9740    3.8641   51.7353 C.2     1  ZINC000252489163    0.7100
      7 O7         -1.3752    4.9151   51.6116 O.2     1  ZINC000252489163   -0.5500
      8 N8         -3.3209    3.8465   51.6903 N.am    1  ZINC000252489163   -0.6200
      9 C9         -4.0796    5.0891   51.4923 C.3     1  ZINC000252489163    0.1000
     10 C10        -5.1115    5.2211   52.6167 C.3     1  ZINC000252489163   -0.1400
     11 C11        -5.9747    3.9581   52.6623 C.3     1  ZINC000252489163   -0.1300
     12 C12        -5.0907    2.7444   52.9581 C.3     1  ZINC000252489163    0.1400
     13 H13        -4.5767    2.8916   53.9080 H       1  ZINC000252489163    0.0900
     14 N14        -5.9221    1.5405   53.0333 N.am    1  ZINC000252489163   -1.1100
     15 S15        -6.1228    0.5877   51.6937 S.o2    1  ZINC000252489163    2.6100
     16 C16        -7.2058   -0.7561   52.2521 C.3     1  ZINC000252489163   -0.6700
     17 O17        -6.8027    1.4240   50.7677 O.2     1  ZINC000252489163   -0.9500
     18 O18        -4.8193    0.0948   51.4159 O.2     1  ZINC000252489163   -0.9500
     19 C19        -4.0582    2.5836   51.8319 C.3     1  ZINC000252489163    0.1100
     20 C20         0.8449    2.0594   51.0009 C.ar    1  ZINC000252489163   -0.1000
     21 C21         2.2253    2.0796   51.0495 C.ar    1  ZINC000252489163   -0.1600
     22 C22         3.0262    1.3466   50.0043 C.3     1  ZINC000252489163    0.5100
     23 F23         2.2664    1.2238   48.8361 F       1  ZINC000252489163   -0.1700
     24 F24         4.1960    2.0620   49.7267 F       1  ZINC000252489163   -0.1800
     25 F25         3.3596    0.0739   50.4799 F       1  ZINC000252489163   -0.1800
     26 C26         2.8730    2.7760   52.0532 C.ar    1  ZINC000252489163   -0.0900
     27 H27         3.0265    5.2260   53.7923 H       1  ZINC000252489163    0.0800
     28 H28         2.2357    4.1986   55.0118 H       1  ZINC000252489163    0.0700
     29 H29         3.8057    3.7170   54.3253 H       1  ZINC000252489163    0.0700
     30 H30         0.1907    3.9552   53.7251 H       1  ZINC000252489163    0.1300
     31 H31        -1.7685    1.8782   52.0162 H       1  ZINC000252489163    0.4100
     32 H32        -3.3995    5.9406   51.5187 H       1  ZINC000252489163    0.0800
     33 H33        -4.5900    5.0561   50.5298 H       1  ZINC000252489163    0.0800
     34 H34        -4.5974    5.3449   53.5698 H       1  ZINC000252489163    0.0700
     35 H35        -5.7451    6.0880   52.4292 H       1  ZINC000252489163    0.0900
     36 H36        -6.7259    4.0597   53.4455 H       1  ZINC000252489163    0.0800
     37 H37        -6.4693    3.8213   51.7006 H       1  ZINC000252489163    0.0800
     38 H38        -6.3549    1.3014   53.8679 H       1  ZINC000252489163    0.4200
     39 H39        -8.1510   -0.3398   52.6008 H       1  ZINC000252489163    0.1300
     40 H40        -7.3933   -1.4395   51.4240 H       1  ZINC000252489163    0.1300
     41 H41        -6.7241   -1.2962   53.0671 H       1  ZINC000252489163    0.1300
     42 H42        -4.5692    2.3459   50.8989 H       1  ZINC000252489163    0.0800
     43 H43        -3.3634    1.7827   52.0848 H       1  ZINC000252489163    0.1100
     44 H44         0.3396    1.5183   50.2146 H       1  ZINC000252489163    0.1800
     45 H45         3.9522    2.7907   52.0888 H       1  ZINC000252489163    0.1300
@<TRIPOS>BOND
     1     1     2    1
     2     1    27    1
     3     1    28    1
     4     1    29    1
     5     2    26   ar
     6     2     3   ar
     7     3     4   ar
     8     3    30    1
     9     4     5    1
    10     4    20   ar
    11     5     6   am
    12     5    31    1
    13     6     7    2
    14     6     8   am
    15     8    19    1
    16     8     9    1
    17     9    10    1
    18     9    32    1
    19     9    33    1
    20    10    11    1
    21    10    34    1
    22    10    35    1
    23    11    12    1
    24    11    36    1
    25    11    37    1
    26    12    13    1
    27    12    14    1
    28    12    19    1
    29    14    15   am
    30    14    38    1
    31    15    16    1
    32    15    17    2
    33    15    18    2
    34    16    39    1
    35    16    40    1
    36    16    41    1
    37    19    42    1
    38    19    43    1
    39    20    21   ar
    40    20    44    1
    41    21    22    1
    42    21    26   ar
    43    22    23    1
    44    22    24    1
    45    22    25    1
    46    26    45    1
@<TRIPOS>SUBSTRUCTURE
     1 ZINC000252489163        1 TEMP              0 ****  ****    0 ROOT


##########                                Name:    ZINC000375477402
##########                DOCK_Rotatable_Bonds:                   5
##########                         Heavy_Atoms:                  26
##########                    Molecular_Weight:             378.342
##########                DOCK_Rotatable_Bonds:                   5
##########                       Formal_Charge:         -1.2666e-07
##########                     HBond_Acceptors:                   9
##########                        HBond_Donors:                   1
##########                         Heavy_Atoms:                  26
##########                          Grid_Score:          -26.970339
##########                     Grid_vdw_energy:          -26.377121
##########                      Grid_es_energy:           -0.593217
##########           Internal_energy_repulsive:            7.929276

@<TRIPOS>MOLECULE
ZINC000375477402
 45 47 1 0 0
SMALL
USER_CHARGES


@<TRIPOS>ATOM
      1 O1         -8.2701   -1.1434   52.1876 O.2     1  ZINC000375477402   -0.5600
      2 C2         -8.1634    0.0102   52.5569 C.2     1  ZINC000375477402    0.7200
      3 N3         -8.9892    0.4929   53.5064 N.am    1  ZINC000375477402   -0.7300
      4 C4        -10.0193   -0.3705   54.0892 C.3     1  ZINC000375477402    0.1800
      5 H5         -9.7135   -1.4128   53.9991 H       1  ZINC000375477402    0.1500
      6 C6        -10.2006   -0.0242   55.5446 C.ar    1  ZINC000375477402   -0.1300
      7 C7        -10.0219    1.2779   55.9726 C.ar    1  ZINC000375477402   -0.0800
      8 C8        -10.1879    1.5973   57.3074 C.ar    1  ZINC000375477402   -0.0900
      9 C9        -10.5327    0.6152   58.2168 C.ar    1  ZINC000375477402   -0.1100
     10 C10       -10.7124   -0.6895   57.7914 C.ar    1  ZINC000375477402    0.0800
     11 F11       -11.0495   -1.6501   58.6796 F       1  ZINC000375477402   -0.1200
     12 C12       -10.5516   -1.0088   56.4518 C.ar    1  ZINC000375477402    0.1000
     13 F13       -10.7264   -2.2817   56.0342 F       1  ZINC000375477402   -0.1100
     14 C14       -11.3405   -0.1607   53.3466 C.3     1  ZINC000375477402    0.4400
     15 F15       -11.2046   -0.5912   52.0225 F       1  ZINC000375477402   -0.1600
     16 F16       -12.3506   -0.8968   53.9750 F       1  ZINC000375477402   -0.1700
     17 F17       -11.6742    1.1979   53.3634 F       1  ZINC000375477402   -0.1800
     18 N18        -7.2157    0.8044   52.0208 N.am    1  ZINC000375477402   -0.6300
     19 C19        -6.2491    0.4076   50.9798 C.3     1  ZINC000375477402    0.1000
     20 C20        -5.8395    1.7339   50.2896 C.3     1  ZINC000375477402   -0.1200
     21 C21        -5.8273    2.7129   51.4847 C.3     1  ZINC000375477402   -0.1100
     22 C22        -6.9775    2.2138   52.3722 C.3     1  ZINC000375477402    0.1400
     23 C23        -4.4956    2.6287   52.2202 C.3     1  ZINC000375477402   -0.1100
     24 C24        -4.4849    3.6542   53.3598 C.3     1  ZINC000375477402   -0.1600
     25 C25        -4.7707    5.0440   52.7845 C.3     1  ZINC000375477402    0.0600
     26 O26        -6.0336    5.0330   52.1156 O.3     1  ZINC000375477402   -0.3800
     27 C27        -6.0967    4.1329   51.0057 C.3     1  ZINC000375477402    0.0800
     28 H28        -8.9013    1.4120   53.8039 H       1  ZINC000375477402    0.4000
     29 H29        -9.7521    2.0465   55.2635 H       1  ZINC000375477402    0.1400
     30 H30       -10.0475    2.6152   57.6401 H       1  ZINC000375477402    0.1500
     31 H31       -10.6617    0.8659   59.2593 H       1  ZINC000375477402    0.1500
     32 H32        -5.3792   -0.0688   51.4321 H       1  ZINC000375477402    0.0700
     33 H33        -6.7197   -0.2639   50.2617 H       1  ZINC000375477402    0.0700
     34 H34        -4.8493    1.6517   49.8414 H       1  ZINC000375477402    0.0900
     35 H35        -6.5793    2.0328   49.5470 H       1  ZINC000375477402    0.0800
     36 H36        -7.8739    2.8054   52.1857 H       1  ZINC000375477402    0.0800
     37 H37        -6.6943    2.2857   53.4223 H       1  ZINC000375477402    0.0700
     38 H38        -4.3687    1.6268   52.6303 H       1  ZINC000375477402    0.0700
     39 H39        -3.6825    2.8454   51.5274 H       1  ZINC000375477402    0.0700
     40 H40        -5.2528    3.3966   54.0893 H       1  ZINC000375477402    0.0700
     41 H41        -3.5073    3.6532   53.8419 H       1  ZINC000375477402    0.0800
     42 H42        -4.7945    5.7741   53.5935 H       1  ZINC000375477402    0.1000
     43 H43        -3.9869    5.3121   52.0762 H       1  ZINC000375477402    0.0500
     44 H44        -5.3471    4.4150   50.2664 H       1  ZINC000375477402    0.0600
     45 H45        -7.0877    4.1819   50.5543 H       1  ZINC000375477402    0.1000
@<TRIPOS>BOND
     1     1     2    2
     2     2     3   am
     3     2    18   am
     4     3     4    1
     5     3    28    1
     6     4     5    1
     7     4     6    1
     8     4    14    1
     9     6    12   ar
    10     6     7   ar
    11     7     8   ar
    12     7    29    1
    13     8     9   ar
    14     8    30    1
    15     9    10   ar
    16     9    31    1
    17    10    11    1
    18    10    12   ar
    19    12    13    1
    20    14    15    1
    21    14    16    1
    22    14    17    1
    23    18    22    1
    24    18    19    1
    25    19    20    1
    26    19    32    1
    27    19    33    1
    28    20    21    1
    29    20    34    1
    30    20    35    1
    31    21    27    1
    32    21    22    1
    33    21    23    1
    34    22    36    1
    35    22    37    1
    36    23    24    1
    37    23    38    1
    38    23    39    1
    39    24    25    1
    40    24    40    1
    41    24    41    1
    42    25    26    1
    43    25    42    1
    44    25    43    1
    45    26    27    1
    46    27    44    1
    47    27    45    1
@<TRIPOS>SUBSTRUCTURE
     1 ZINC000375477402        1 TEMP              0 ****  ****    0 ROOT


##########                                Name:    ZINC000826052721
##########                DOCK_Rotatable_Bonds:                   3
##########                         Heavy_Atoms:                  29
##########                    Molecular_Weight:             393.399
##########                DOCK_Rotatable_Bonds:                   3
##########                       Formal_Charge:        -4.47035e-07
##########                     HBond_Acceptors:                   9
##########                        HBond_Donors:                   2
##########                         Heavy_Atoms:                  29
##########                          Grid_Score:          -26.906109
##########                     Grid_vdw_energy:          -22.721415
##########                      Grid_es_energy:           -4.184693
##########           Internal_energy_repulsive:           86.239395

@<TRIPOS>MOLECULE
ZINC000826052721
 46 50 1 0 0
SMALL
USER_CHARGES


@<TRIPOS>ATOM
      1 C1         -3.9729    3.4083   56.2622 C.3     1  ZINC000826052721   -0.0400
      2 N2         -2.5765    3.6791   55.8952 N.4     1  ZINC000826052721   -0.3800
      3 H3         -2.0072    2.8763   56.1175 H       1  ZINC000826052721    0.4300
      4 C4         -2.0913    4.8454   56.6386 C.3     1  ZINC000826052721    0.0500
      5 C5         -0.7131    5.2343   56.1729 C.ar    1  ZINC000826052721   -0.1300
      6 C6          0.0611    6.0405   56.9935 C.ar    1  ZINC000826052721   -0.1000
      7 C7          1.3278    6.4242   56.6004 C.ar    1  ZINC000826052721   -0.1000
      8 C8          1.8281    6.0035   55.3825 C.ar    1  ZINC000826052721   -0.0800
      9 C9          1.0591    5.1994   54.5645 C.ar    1  ZINC000826052721   -0.0800
     10 C10        -0.2119    4.8129   54.9591 C.ar    1  ZINC000826052721   -0.1200
     11 C11        -1.0181    3.9320   54.0392 C.3     1  ZINC000826052721    0.1100
     12 H12        -0.6454    2.9093   54.0981 H       1  ZINC000826052721    0.1100
     13 N13        -0.8902    4.4198   52.6596 N.3     1  ZINC000826052721   -0.6200
     14 C14        -1.6141    3.6300   51.7857 C.ar    1  ZINC000826052721    0.1600
     15 C15        -0.9888    2.6420   51.0173 C.ar    1  ZINC000826052721   -0.0400
     16 C16         0.4681    2.4231   51.1264 C.2     1  ZINC000826052721    0.0700
     17 N17         1.1916    1.5158   50.4660 N.2     1  ZINC000826052721   -0.3800
     18 N18         2.4179    1.6520   50.8400 N.2     1  ZINC000826052721   -0.1600
     19 N19         2.4946    2.5964   51.7107 N.2     1  ZINC000826052721   -0.1700
     20 N20         1.3201    3.0896   51.9092 N.pl3   1  ZINC000826052721   -0.3400
     21 C21        -1.7592    1.8587   50.1460 C.ar    1  ZINC000826052721    0.1800
     22 N22        -3.0511    2.0337   50.0249 N.ar    1  ZINC000826052721   -0.4700
     23 C23        -3.7089    2.9654   50.7278 C.ar    1  ZINC000826052721    0.0900
     24 C24        -5.0975    3.1333   50.5769 C.ar    1  ZINC000826052721    0.1700
     25 F25        -5.7851    2.3505   49.7169 F       1  ZINC000826052721   -0.1100
     26 C26        -5.7473    4.0881   51.3020 C.ar    1  ZINC000826052721   -0.1900
     27 C27        -5.0562    4.9057   52.1943 C.ar    1  ZINC000826052721    0.1300
     28 F28        -5.7275    5.8432   52.8984 F       1  ZINC000826052721   -0.1300
     29 C29        -3.7086    4.7704   52.3647 C.ar    1  ZINC000826052721   -0.1500
     30 C30        -3.0109    3.7979   51.6347 C.ar    1  ZINC000826052721   -0.0600
     31 C31        -2.4896    3.9615   54.4546 C.3     1  ZINC000826052721    0.0000
     32 H32        -4.5873    4.2750   56.0183 H       1  ZINC000826052721    0.1200
     33 H33        -4.3324    2.5408   55.7087 H       1  ZINC000826052721    0.1300
     34 H34        -4.0352    3.2081   57.3318 H       1  ZINC000826052721    0.1200
     35 H35        -2.0572    4.6056   57.7014 H       1  ZINC000826052721    0.1400
     36 H36        -2.7731    5.6811   56.4811 H       1  ZINC000826052721    0.1400
     37 H37        -0.3287    6.3696   57.9454 H       1  ZINC000826052721    0.1300
     38 H38         1.9268    7.0520   57.2434 H       1  ZINC000826052721    0.1300
     39 H39         2.8183    6.3026   55.0717 H       1  ZINC000826052721    0.1300
     40 H40         1.4501    4.8699   53.6133 H       1  ZINC000826052721    0.1400
     41 H41         0.0786    4.4712   52.3825 H       1  ZINC000826052721    0.4100
     42 H42        -1.2740    1.0944   49.5570 H       1  ZINC000826052721    0.1800
     43 H43        -6.8135    4.2128   51.1827 H       1  ZINC000826052721    0.1600
     44 H44        -3.1824    5.4096   53.0583 H       1  ZINC000826052721    0.1400
     45 H45        -2.9084    4.9464   54.2480 H       1  ZINC000826052721    0.1400
     46 H46        -3.0416    3.2026   53.9001 H       1  ZINC000826052721    0.1400
@<TRIPOS>BOND
     1     1     2    1
     2     1    32    1
     3     1    33    1
     4     1    34    1
     5     2     3    1
     6     2    31    1
     7     2     4    1
     8     4     5    1
     9     4    35    1
    10     4    36    1
    11     5    10   ar
    12     5     6   ar
    13     6     7   ar
    14     6    37    1
    15     7     8   ar
    16     7    38    1
    17     8     9   ar
    18     8    39    1
    19     9    10   ar
    20     9    40    1
    21    10    11    1
    22    11    12    1
    23    11    13    1
    24    11    31    1
    25    13    14    1
    26    13    41    1
    27    14    30   ar
    28    14    15   ar
    29    15    16    1
    30    15    21   ar
    31    16    20    1
    32    16    17    2
    33    17    18    1
    34    18    19    2
    35    19    20    1
    36    21    22   ar
    37    21    42    1
    38    22    23   ar
    39    23    30   ar
    40    23    24   ar
    41    24    25    1
    42    24    26   ar
    43    26    27   ar
    44    26    43    1
    45    27    28    1
    46    27    29   ar
    47    29    30   ar
    48    29    44    1
    49    31    45    1
    50    31    46    1
@<TRIPOS>SUBSTRUCTURE
     1 ZINC000826052721        1 TEMP              0 ****  ****    0 ROOT


##########                                Name:    ZINC000464752079
##########                DOCK_Rotatable_Bonds:                   7
##########                         Heavy_Atoms:                  29
##########                    Molecular_Weight:             404.413
##########                DOCK_Rotatable_Bonds:                   7
##########                       Formal_Charge:         7.45058e-08
##########                     HBond_Acceptors:                   8
##########                        HBond_Donors:                   1
##########                         Heavy_Atoms:                  29
##########                          Grid_Score:          -26.890181
##########                     Grid_vdw_energy:          -26.208740
##########                      Grid_es_energy:           -0.681440
##########           Internal_energy_repulsive:           20.358187

@<TRIPOS>MOLECULE
ZINC000464752079
 51 54 1 0 0
SMALL
USER_CHARGES


@<TRIPOS>ATOM
      1 C1         -8.3237    4.2848   55.4471 C.3     1  ZINC000464752079   -0.1200
      2 C2         -9.1340    4.1423   54.1844 C.ar    1  ZINC000464752079   -0.0800
      3 C3         -9.4299    5.2575   53.4237 C.ar    1  ZINC000464752079   -0.1200
      4 C4        -10.1734    5.1267   52.2653 C.ar    1  ZINC000464752079   -0.1200
      5 C5        -10.6203    3.8807   51.8680 C.ar    1  ZINC000464752079   -0.1300
      6 C6        -10.3235    2.7649   52.6285 C.ar    1  ZINC000464752079   -0.0900
      7 C7         -9.5766    2.8951   53.7843 C.ar    1  ZINC000464752079   -0.0800
      8 C8         -9.2532    1.6789   54.6133 C.3     1  ZINC000464752079    0.2000
      9 H9         -8.2915    1.8132   55.1085 H       1  ZINC000464752079    0.0900
     10 C10       -10.3585    1.4522   55.6661 C.3     1  ZINC000464752079   -0.1200
     11 C11       -10.4989   -0.0927   55.6955 C.3     1  ZINC000464752079   -0.1300
     12 C12       -10.2566   -0.4553   54.2090 C.3     1  ZINC000464752079    0.1000
     13 N13        -9.2116    0.4856   53.7555 N.am    1  ZINC000464752079   -0.6300
     14 C14        -8.3657    0.2833   52.7259 C.2     1  ZINC000464752079    0.7200
     15 O15        -8.4273   -0.7461   52.0818 O.2     1  ZINC000464752079   -0.5700
     16 N16        -7.4514    1.2219   52.4105 N.am    1  ZINC000464752079   -0.7400
     17 C17        -6.5331    1.0027   51.2904 C.3     1  ZINC000464752079    0.1900
     18 C18        -5.3379    1.9091   51.4359 C.ar    1  ZINC000464752079   -0.1200
     19 C19        -4.0757    1.3675   51.5902 C.ar    1  ZINC000464752079   -0.0500
     20 C20        -2.9751    2.1979   51.7247 C.ar    1  ZINC000464752079    0.0100
     21 C21        -3.1413    3.5803   51.7040 C.ar    1  ZINC000464752079    0.0800
     22 C22        -4.4072    4.1209   51.5481 C.ar    1  ZINC000464752079   -0.1800
     23 C23        -5.5052    3.2857   51.4092 C.ar    1  ZINC000464752079    0.1400
     24 O24        -6.7477    3.8165   51.2559 O.3     1  ZINC000464752079   -0.3100
     25 C25        -6.8341    5.0912   50.6160 C.3     1  ZINC000464752079    0.4100
     26 F26        -8.0152    5.1590   49.8691 F       1  ZINC000464752079   -0.2000
     27 F27        -6.8366    6.1003   51.5850 F       1  ZINC000464752079   -0.2000
     28 O28        -1.9189    4.1691   51.8535 O.3     1  ZINC000464752079   -0.3000
     29 C29        -1.0572    3.1401   52.3749 C.3     1  ZINC000464752079    0.2100
     30 O30        -1.6474    1.9206   51.8874 O.3     1  ZINC000464752079   -0.3000
     31 H31        -7.2640    4.1856   55.2119 H       1  ZINC000464752079    0.0700
     32 H32        -8.5077    5.2644   55.8883 H       1  ZINC000464752079    0.0700
     33 H33        -8.6133    3.5076   56.1543 H       1  ZINC000464752079    0.0700
     34 H34        -9.0807    6.2312   53.7341 H       1  ZINC000464752079    0.1200
     35 H35       -10.4052    5.9983   51.6712 H       1  ZINC000464752079    0.1200
     36 H36       -11.2016    3.7786   50.9635 H       1  ZINC000464752079    0.1200
     37 H37       -10.6730    1.7913   52.3183 H       1  ZINC000464752079    0.1100
     38 H38       -10.0468    1.8297   56.6400 H       1  ZINC000464752079    0.0900
     39 H39       -11.2922    1.9184   55.3515 H       1  ZINC000464752079    0.0800
     40 H40        -9.7399   -0.5419   56.3359 H       1  ZINC000464752079    0.0800
     41 H41       -11.4994   -0.3882   56.0115 H       1  ZINC000464752079    0.0900
     42 H42        -9.9036   -1.4828   54.1219 H       1  ZINC000464752079    0.0700
     43 H43       -11.1702   -0.3168   53.6309 H       1  ZINC000464752079    0.0700
     44 H44        -7.4016    2.0427   52.9252 H       1  ZINC000464752079    0.4000
     45 H45        -6.2032   -0.0361   51.2890 H       1  ZINC000464752079    0.0800
     46 H46        -7.0441    1.2230   50.3531 H       1  ZINC000464752079    0.0800
     47 H47        -3.9473    0.2953   51.6063 H       1  ZINC000464752079    0.1500
     48 H48        -4.5384    5.1928   51.5316 H       1  ZINC000464752079    0.1500
     49 H49        -5.9779    5.2246   49.9548 H       1  ZINC000464752079    0.1900
     50 H50        -0.0446    3.2566   51.9888 H       1  ZINC000464752079    0.1400
     51 H51        -1.0571    3.1566   53.4648 H       1  ZINC000464752079    0.0900
@<TRIPOS>BOND
     1     1     2    1
     2     1    31    1
     3     1    32    1
     4     1    33    1
     5     2     7   ar
     6     2     3   ar
     7     3     4   ar
     8     3    34    1
     9     4     5   ar
    10     4    35    1
    11     5     6   ar
    12     5    36    1
    13     6     7   ar
    14     6    37    1
    15     7     8    1
    16     8     9    1
    17     8    13    1
    18     8    10    1
    19    10    11    1
    20    10    38    1
    21    10    39    1
    22    11    12    1
    23    11    40    1
    24    11    41    1
    25    12    13    1
    26    12    42    1
    27    12    43    1
    28    13    14   am
    29    14    15    2
    30    14    16   am
    31    16    17    1
    32    16    44    1
    33    17    18    1
    34    17    45    1
    35    17    46    1
    36    18    23   ar
    37    18    19   ar
    38    19    20   ar
    39    19    47    1
    40    20    30    1
    41    20    21   ar
    42    21    22   ar
    43    21    28    1
    44    22    23   ar
    45    22    48    1
    46    23    24    1
    47    24    25    1
    48    25    26    1
    49    25    27    1
    50    25    49    1
    51    28    29    1
    52    29    30    1
    53    29    50    1
    54    29    51    1
@<TRIPOS>SUBSTRUCTURE
     1 ZINC000464752079        1 TEMP              0 ****  ****    0 ROOT


##########                                Name:    ZINC000864477301
##########                DOCK_Rotatable_Bonds:                   6
##########                         Heavy_Atoms:                  26
##########                    Molecular_Weight:             393.891
##########                DOCK_Rotatable_Bonds:                   6
##########                       Formal_Charge:         -0.00999978
##########                     HBond_Acceptors:                   7
##########                        HBond_Donors:                   1
##########                         Heavy_Atoms:                  26
##########                          Grid_Score:          -26.868546
##########                     Grid_vdw_energy:          -23.258749
##########                      Grid_es_energy:           -3.609797
##########           Internal_energy_repulsive:            7.215111

@<TRIPOS>MOLECULE
ZINC000864477301
 46 47 1 0 0
SMALL
USER_CHARGES


@<TRIPOS>ATOM
      1 C1          2.4707    1.9958   50.2536 C.3     1  ZINC000864477301   -0.1500
      2 C2          2.5943    3.2081   49.3285 C.3     1  ZINC000864477301    0.0600
      3 O3          1.3216    3.9045   49.2705 O.3     1  ZINC000864477301   -0.3500
      4 C4          1.1642    4.9606   50.0918 C.2     1  ZINC000864477301    0.5100
      5 O5          1.5377    6.0625   49.7425 O.2     1  ZINC000864477301   -0.5000
      6 C6          0.5378    4.7789   51.4171 C.ar    1  ZINC000864477301   -0.1400
      7 C7          1.1114    5.3602   52.5495 C.ar    1  ZINC000864477301   -0.0300
      8 C8          0.5211    5.1863   53.7843 C.ar    1  ZINC000864477301   -0.1500
      9 C9         -0.6363    4.4378   53.9020 C.ar    1  ZINC000864477301   -0.0100
     10 C10        -1.2103    3.8589   52.7837 C.ar    1  ZINC000864477301   -0.4900
     11 S11        -2.6845    2.9074   52.9452 S.o     1  ZINC000864477301    1.3800
     12 O12        -2.6414    2.0558   51.8084 O.2     1  ZINC000864477301   -0.8100
     13 C13        -3.9939    4.1434   52.7254 C.3     1  ZINC000864477301   -0.4600
     14 H14        -3.9585    4.8600   53.5459 H       1  ZINC000864477301    0.1400
     15 C15        -3.7859    4.8763   51.3986 C.3     1  ZINC000864477301   -0.1400
     16 C16        -5.3357    3.4573   52.7152 C.2     1  ZINC000864477301    0.5500
     17 O17        -6.2440    3.9115   52.0519 O.2     1  ZINC000864477301   -0.5100
     18 N18        -5.5264    2.3393   53.4431 N.am    1  ZINC000864477301   -0.6800
     19 C19        -6.7728    1.7020   53.4336 C.ar    1  ZINC000864477301    0.1400
     20 C20        -7.7705    2.1125   54.3071 C.ar    1  ZINC000864477301   -0.0600
     21 C21        -7.5131    3.2451   55.2673 C.3     1  ZINC000864477301   -0.1100
     22 C22        -8.9998    1.4820   54.2952 C.ar    1  ZINC000864477301   -0.1100
     23 C23        -9.2374    0.4431   53.4146 C.ar    1  ZINC000864477301   -0.1000
     24 C24        -8.2459    0.0308   52.5429 C.ar    1  ZINC000864477301   -0.1100
     25 C25        -7.0161    0.6608   52.5456 C.ar    1  ZINC000864477301   -0.0200
     26 Cl26       -5.7720    0.1434   51.4510 Cl      1  ZINC000864477301   -0.0600
     27 C27        -0.6341    4.0297   51.5423 C.ar    1  ZINC000864477301    0.0100
     28 H28         2.1929    2.3287   51.2536 H       1  ZINC000864477301    0.0700
     29 H29         1.7050    1.3219   49.8691 H       1  ZINC000864477301    0.0700
     30 H30         3.4262    1.4730   50.2970 H       1  ZINC000864477301    0.0800
     31 H31         3.3600    3.8819   49.7128 H       1  ZINC000864477301    0.0700
     32 H32         2.8721    2.8752   48.3284 H       1  ZINC000864477301    0.0700
     33 H33         2.0154    5.9442   52.4591 H       1  ZINC000864477301    0.1400
     34 H34         0.9638    5.6354   54.6611 H       1  ZINC000864477301    0.1400
     35 H35        -1.0939    4.3042   54.8711 H       1  ZINC000864477301    0.1500
     36 H36        -4.5727    5.6191   51.2666 H       1  ZINC000864477301    0.0700
     37 H37        -2.8154    5.3726   51.4060 H       1  ZINC000864477301    0.0700
     38 H38        -3.8213    4.1597   50.5781 H       1  ZINC000864477301    0.0700
     39 H39        -4.8001    1.9761   53.9737 H       1  ZINC000864477301    0.4100
     40 H40        -7.7888    4.1893   54.7977 H       1  ZINC000864477301    0.0800
     41 H41        -8.1089    3.1000   56.1684 H       1  ZINC000864477301    0.0700
     42 H42        -6.4555    3.2654   55.5303 H       1  ZINC000864477301    0.0700
     43 H43        -9.7760    1.8009   54.9750 H       1  ZINC000864477301    0.1400
     44 H44       -10.1993   -0.0478   53.4075 H       1  ZINC000864477301    0.1400
     45 H45        -8.4346   -0.7814   51.8564 H       1  ZINC000864477301    0.1400
     46 H46        -1.0832    3.5777   50.6703 H       1  ZINC000864477301    0.1400
@<TRIPOS>BOND
     1     1     2    1
     2     1    28    1
     3     1    29    1
     4     1    30    1
     5     2     3    1
     6     2    31    1
     7     2    32    1
     8     3     4    1
     9     4     5    2
    10     4     6    1
    11     6    27   ar
    12     6     7   ar
    13     7     8   ar
    14     7    33    1
    15     8     9   ar
    16     8    34    1
    17     9    10   ar
    18     9    35    1
    19    10    11    1
    20    10    27   ar
    21    11    12    2
    22    11    13    1
    23    13    14    1
    24    13    15    1
    25    13    16    1
    26    15    36    1
    27    15    37    1
    28    15    38    1
    29    16    17    2
    30    16    18   am
    31    18    19    1
    32    18    39    1
    33    19    25   ar
    34    19    20   ar
    35    20    21    1
    36    20    22   ar
    37    21    40    1
    38    21    41    1
    39    21    42    1
    40    22    23   ar
    41    22    43    1
    42    23    24   ar
    43    23    44    1
    44    24    25   ar
    45    24    45    1
    46    25    26    1
    47    27    46    1
@<TRIPOS>SUBSTRUCTURE
     1 ZINC000864477301        1 TEMP              0 ****  ****    0 ROOT


##########                                Name:    ZINC000076573199
##########                DOCK_Rotatable_Bonds:                  10
##########                         Heavy_Atoms:                  24
##########                    Molecular_Weight:             333.431
##########                DOCK_Rotatable_Bonds:                  10
##########                       Formal_Charge:          -0.0200009
##########                     HBond_Acceptors:                   6
##########                        HBond_Donors:                   3
##########                         Heavy_Atoms:                  24
##########                          Grid_Score:          -26.843390
##########                     Grid_vdw_energy:          -23.587654
##########                      Grid_es_energy:           -3.255736
##########           Internal_energy_repulsive:           21.292284

@<TRIPOS>MOLECULE
ZINC000076573199
 51 51 1 0 0
SMALL
USER_CHARGES


@<TRIPOS>ATOM
      1 C1         -0.8712    2.6350   57.6532 C.3     1  ZINC000076573199   -0.1500
      2 C2         -1.0338    4.1326   57.3855 C.3     1  ZINC000076573199   -0.1200
      3 C3         -2.0986    4.3454   56.3076 C.3     1  ZINC000076573199   -0.1000
      4 H4         -2.1915    5.4101   56.0938 H       1  ZINC000076573199    0.0700
      5 C5         -3.4414    3.8057   56.8037 C.3     1  ZINC000076573199   -0.1500
      6 C6         -1.6899    3.6031   55.0336 C.3     1  ZINC000076573199   -0.1200
      7 C7         -2.4858    4.1502   53.8470 C.3     1  ZINC000076573199    0.1400
      8 H8         -2.6950    5.2079   54.0064 H       1  ZINC000076573199    0.1000
      9 C9         -1.6704    3.9794   52.5637 C.3     1  ZINC000076573199   -0.1700
     10 N10        -3.7476    3.4159   53.7253 N.am    1  ZINC000076573199   -0.6900
     11 C11        -4.8060    3.9905   53.1200 C.2     1  ZINC000076573199    0.5100
     12 O12        -4.7142    5.1167   52.6773 O.2     1  ZINC000076573199   -0.5100
     13 C13        -6.0919    3.2412   52.9943 C.2     1  ZINC000076573199    0.5100
     14 O14        -6.9869    3.6834   52.3038 O.2     1  ZINC000076573199   -0.5000
     15 N15        -6.2585    2.0742   53.6476 N.am    1  ZINC000076573199   -0.6400
     16 C16        -7.4614    1.3733   53.5300 C.ar    1  ZINC000076573199    0.1500
     17 C17        -7.6018    0.3908   52.5573 C.ar    1  ZINC000076573199   -0.1300
     18 C18        -8.7910   -0.3029   52.4409 C.ar    1  ZINC000076573199   -0.0800
     19 C19        -9.8439   -0.0226   53.2904 C.ar    1  ZINC000076573199   -0.1200
     20 C20       -11.1389   -0.7822   53.1599 C.3     1  ZINC000076573199   -0.1100
     21 C21        -9.7100    0.9586   54.2651 C.ar    1  ZINC000076573199    0.1600
     22 N22       -10.7770    1.2417   55.1249 N.am    1  ZINC000076573199   -0.6700
     23 C23       -10.6022    1.1770   56.4597 C.2     1  ZINC000076573199    0.5100
     24 C24       -11.7513    1.4819   57.3858 C.3     1  ZINC000076573199   -0.1700
     25 O25        -9.5202    0.8733   56.9156 O.2     1  ZINC000076573199   -0.5200
     26 C26        -8.5158    1.6535   54.3884 C.ar    1  ZINC000076573199   -0.1400
     27 H27        -0.5645    2.1331   56.7355 H       1  ZINC000076573199    0.0600
     28 H28        -0.1127    2.4834   58.4211 H       1  ZINC000076573199    0.0500
     29 H29        -1.8205    2.2215   57.9936 H       1  ZINC000076573199    0.0500
     30 H30        -1.3404    4.6345   58.3032 H       1  ZINC000076573199    0.0600
     31 H31        -0.0844    4.5460   57.0451 H       1  ZINC000076573199    0.0600
     32 H32        -3.3718    2.7262   56.9383 H       1  ZINC000076573199    0.0600
     33 H33        -3.6926    4.2750   57.7550 H       1  ZINC000076573199    0.0600
     34 H34        -4.2166    4.0312   56.0714 H       1  ZINC000076573199    0.0500
     35 H35        -0.6246    3.7483   54.8544 H       1  ZINC000076573199    0.0800
     36 H36        -1.8970    2.5394   55.1506 H       1  ZINC000076573199    0.0700
     37 H37        -2.2375    4.3691   51.7183 H       1  ZINC000076573199    0.0600
     38 H38        -0.7316    4.5257   52.6542 H       1  ZINC000076573199    0.0700
     39 H39        -1.4613    2.9215   52.4042 H       1  ZINC000076573199    0.0600
     40 H40        -3.8214    2.5161   54.0801 H       1  ZINC000076573199    0.4100
     41 H41        -5.5431    1.7209   54.1994 H       1  ZINC000076573199    0.4200
     42 H42        -6.7808    0.1696   51.8915 H       1  ZINC000076573199    0.1400
     43 H43        -8.8979   -1.0657   51.6840 H       1  ZINC000076573199    0.1300
     44 H44       -11.1043   -1.6702   53.7909 H       1  ZINC000076573199    0.0700
     45 H45       -11.9664   -0.1458   53.4733 H       1  ZINC000076573199    0.0600
     46 H46       -11.2825   -1.0798   52.1212 H       1  ZINC000076573199    0.0700
     47 H47       -11.6424    1.4846   54.7603 H       1  ZINC000076573199    0.4100
     48 H48       -12.5679    0.7859   57.1930 H       1  ZINC000076573199    0.0900
     49 H49       -11.4222    1.3783   58.4197 H       1  ZINC000076573199    0.1000
     50 H50       -12.0954    2.5019   57.2144 H       1  ZINC000076573199    0.0900
     51 H51        -8.4094    2.4166   55.1452 H       1  ZINC000076573199    0.1400
@<TRIPOS>BOND
     1     1     2    1
     2     1    27    1
     3     1    28    1
     4     1    29    1
     5     2     3    1
     6     2    30    1
     7     2    31    1
     8     3     4    1
     9     3     5    1
    10     3     6    1
    11     5    32    1
    12     5    33    1
    13     5    34    1
    14     6     7    1
    15     6    35    1
    16     6    36    1
    17     7     8    1
    18     7     9    1
    19     7    10    1
    20     9    37    1
    21     9    38    1
    22     9    39    1
    23    10    11   am
    24    10    40    1
    25    11    12    2
    26    11    13    1
    27    13    14    2
    28    13    15   am
    29    15    16    1
    30    15    41    1
    31    16    26   ar
    32    16    17   ar
    33    17    18   ar
    34    17    42    1
    35    18    19   ar
    36    18    43    1
    37    19    20    1
    38    19    21   ar
    39    20    44    1
    40    20    45    1
    41    20    46    1
    42    21    22    1
    43    21    26   ar
    44    22    23   am
    45    22    47    1
    46    23    24    1
    47    23    25    2
    48    24    48    1
    49    24    49    1
    50    24    50    1
    51    26    51    1
@<TRIPOS>SUBSTRUCTURE
     1 ZINC000076573199        1 TEMP              0 ****  ****    0 ROOT


##########                                Name:    ZINC000828026236
##########                DOCK_Rotatable_Bonds:                   1
##########                         Heavy_Atoms:                  19
##########                    Molecular_Weight:             383.045
##########                DOCK_Rotatable_Bonds:                   1
##########                       Formal_Charge:                   0
##########                     HBond_Acceptors:                   5
##########                        HBond_Donors:                   0
##########                         Heavy_Atoms:                  19
##########                          Grid_Score:          -26.813313
##########                     Grid_vdw_energy:          -27.111525
##########                      Grid_es_energy:            0.298211
##########           Internal_energy_repulsive:            2.962129

@<TRIPOS>MOLECULE
ZINC000828026236
 28 30 1 0 0
SMALL
USER_CHARGES


@<TRIPOS>ATOM
      1 N1         -2.1397    3.4636   54.5141 N.1     1  ZINC000828026236   -0.3800
      2 C2         -1.9531    3.0987   53.4546 C.1     1  ZINC000828026236    0.2600
      3 C3         -1.7179    2.6387   52.1191 C.ar    1  ZINC000828026236   -0.0500
      4 C4         -0.4439    2.7309   51.5477 C.ar    1  ZINC000828026236    0.0100
      5 C5         -0.2689    2.2720   50.2529 C.ar    1  ZINC000828026236   -0.1600
      6 Br6         1.4302    2.3702   49.4287 Br      1  ZINC000828026236   -0.0100
      7 C7         -1.3468    1.7406   49.5671 C.ar    1  ZINC000828026236    0.1800
      8 N8         -2.5402    1.6626   50.1241 N.ar    1  ZINC000828026236   -0.5000
      9 C9         -2.7614    2.0809   51.3600 C.ar    1  ZINC000828026236    0.3600
     10 N10        -4.0303    1.9796   51.9042 N.3     1  ZINC000828026236   -0.4900
     11 C11        -4.7574    0.8356   51.3360 C.3     1  ZINC000828026236    0.0500
     12 C12        -5.9852    0.5229   52.2008 C.3     1  ZINC000828026236    0.1100
     13 N13        -6.7197    1.7712   52.4225 N.pl3   1  ZINC000828026236   -0.4400
     14 C14        -7.9974    1.9400   52.8582 C.2     1  ZINC000828026236   -0.0300
     15 Br15       -9.2235    0.5761   53.3185 Br      1  ZINC000828026236    0.0200
     16 C16        -8.2194    3.2714   52.8981 C.2     1  ZINC000828026236    0.0300
     17 N17        -7.0984    3.8935   52.4951 N.2     1  ZINC000828026236   -0.4700
     18 C18        -6.1954    3.0049   52.2098 C.2     1  ZINC000828026236    0.2300
     19 C19        -4.7840    3.2324   51.7232 C.3     1  ZINC000828026236    0.1500
     20 H20         0.3824    3.1501   52.1027 H       1  ZINC000828026236    0.1600
     21 H21        -1.2087    1.3834   48.5573 H       1  ZINC000828026236    0.1800
     22 H22        -5.0792    1.0772   50.3229 H       1  ZINC000828026236    0.0700
     23 H23        -4.1012   -0.0344   51.3096 H       1  ZINC000828026236    0.1100
     24 H24        -6.6250   -0.1936   51.6858 H       1  ZINC000828026236    0.1100
     25 H25        -5.6655    0.1097   53.1575 H       1  ZINC000828026236    0.1000
     26 H26        -9.1377    3.7525   53.2008 H       1  ZINC000828026236    0.1800
     27 H27        -4.3185    4.0291   52.3035 H       1  ZINC000828026236    0.1200
     28 H28        -4.7977    3.5046   50.6679 H       1  ZINC000828026236    0.1000
@<TRIPOS>BOND
     1     1     2    3
     2     2     3    1
     3     3     9   ar
     4     3     4   ar
     5     4     5   ar
     6     4    20    1
     7     5     6    1
     8     5     7   ar
     9     7     8   ar
    10     7    21    1
    11     8     9   ar
    12     9    10    1
    13    10    19    1
    14    10    11    1
    15    11    12    1
    16    11    22    1
    17    11    23    1
    18    12    13    1
    19    12    24    1
    20    12    25    1
    21    13    18    1
    22    13    14    1
    23    14    15    1
    24    14    16    2
    25    16    17    1
    26    16    26    1
    27    17    18    2
    28    18    19    1
    29    19    27    1
    30    19    28    1
@<TRIPOS>SUBSTRUCTURE
     1 ZINC000828026236        1 TEMP              0 ****  ****    0 ROOT


##########                                Name:    ZINC000951315041
##########                DOCK_Rotatable_Bonds:                   5
##########                         Heavy_Atoms:                  25
##########                    Molecular_Weight:             340.382
##########                DOCK_Rotatable_Bonds:                   5
##########                       Formal_Charge:          0.00999974
##########                     HBond_Acceptors:                   7
##########                        HBond_Donors:                   1
##########                         Heavy_Atoms:                  25
##########                          Grid_Score:          -26.807014
##########                     Grid_vdw_energy:          -26.520916
##########                      Grid_es_energy:           -0.286098
##########           Internal_energy_repulsive:           24.587591

@<TRIPOS>MOLECULE
ZINC000951315041
 45 47 1 0 0
SMALL
USER_CHARGES


@<TRIPOS>ATOM
      1 C1         -6.1547   -0.7171   51.9549 C.3     1  ZINC000951315041    0.0500
      2 N2         -7.2928    0.1307   52.3183 N.am    1  ZINC000951315041   -0.4900
      3 C3         -8.4785   -0.4389   52.6036 C.2     1  ZINC000951315041    0.1700
      4 C4         -9.5641    0.3403   52.9479 C.2     1  ZINC000951315041   -0.2400
      5 C5        -10.8610   -0.2883   53.2596 C.2     1  ZINC000951315041    0.5800
      6 O6        -11.5649   -0.7079   52.3610 O.2     1  ZINC000951315041   -0.5200
      7 N7        -11.2664   -0.3980   54.5402 N.am    1  ZINC000951315041   -0.6000
      8 C8        -12.5559   -1.0219   54.8665 C.3     1  ZINC000951315041    0.1100
      9 C9        -13.3650   -0.0554   55.7372 C.3     1  ZINC000951315041   -0.1300
     10 C10       -12.5328    0.3433   56.9582 C.3     1  ZINC000951315041   -0.1300
     11 C11       -11.2596    1.0575   56.4987 C.3     1  ZINC000951315041    0.1300
     12 H12       -11.5270    1.9373   55.9136 H       1  ZINC000951315041    0.1000
     13 N13       -10.4795    1.4673   57.6691 N.am    1  ZINC000951315041   -0.7200
     14 C14       -10.0313    0.5400   58.5385 C.2     1  ZINC000951315041    0.5700
     15 O15       -10.2756   -0.6360   58.3522 O.2     1  ZINC000951315041   -0.5200
     16 C16        -9.2425    0.9533   59.7186 C.ar    1  ZINC000951315041   -0.1900
     17 C17        -9.0470    2.3096   60.0047 C.ar    1  ZINC000951315041   -0.0100
     18 C18        -8.3012    2.6435   61.1216 C.ar    1  ZINC000951315041   -0.1800
     19 C19        -7.7779    1.6364   61.9120 C.ar    1  ZINC000951315041    0.1300
     20 N20        -7.9782    0.3658   61.6177 N.ar    1  ZINC000951315041   -0.4900
     21 C21        -8.6851   -0.0021   60.5696 C.ar    1  ZINC000951315041    0.1400
     22 C22       -10.4242    0.0986   55.6370 C.3     1  ZINC000951315041    0.1000
     23 C23        -9.4229    1.7483   53.0000 C.2     1  ZINC000951315041    0.0100
     24 C24        -8.2154    2.3011   52.7082 C.2     1  ZINC000951315041   -0.2300
     25 C25        -7.1350    1.4659   52.3670 C.2     1  ZINC000951315041    0.5100
     26 O26        -6.0498    1.9569   52.1048 O.2     1  ZINC000951315041   -0.5400
     27 H27        -5.2825   -0.0919   51.7634 H       1  ZINC000951315041    0.1100
     28 H28        -5.9370   -1.4034   52.7733 H       1  ZINC000951315041    0.0800
     29 H29        -6.3976   -1.2865   51.0579 H       1  ZINC000951315041    0.0800
     30 H30        -8.5810   -1.5132   52.5624 H       1  ZINC000951315041    0.1700
     31 H31       -13.1034   -1.2314   53.9476 H       1  ZINC000951315041    0.1000
     32 H32       -12.3852   -1.9499   55.4122 H       1  ZINC000951315041    0.0700
     33 H33       -13.6125    0.8348   55.1592 H       1  ZINC000951315041    0.0700
     34 H34       -14.2826   -0.5431   56.0659 H       1  ZINC000951315041    0.0900
     35 H35       -13.1155    1.0118   57.5921 H       1  ZINC000951315041    0.0800
     36 H36       -12.2647   -0.5499   57.5225 H       1  ZINC000951315041    0.0700
     37 H37       -10.2855    2.4059   57.8184 H       1  ZINC000951315041    0.4000
     38 H38        -9.4672    3.0757   59.3697 H       1  ZINC000951315041    0.1500
     39 H39        -8.1294    3.6797   61.3732 H       1  ZINC000951315041    0.1500
     40 H40        -7.1955    1.8942   62.7843 H       1  ZINC000951315041    0.1600
     41 H41        -8.8273   -1.0524   60.3616 H       1  ZINC000951315041    0.1600
     42 H42       -10.0805   -0.7363   56.2477 H       1  ZINC000951315041    0.0700
     43 H43        -9.5664    0.6304   55.2254 H       1  ZINC000951315041    0.0900
     44 H44       -10.2619    2.3738   53.2672 H       1  ZINC000951315041    0.1400
     45 H45        -8.0854    3.3728   52.7413 H       1  ZINC000951315041    0.1600
@<TRIPOS>BOND
     1     1     2    1
     2     1    27    1
     3     1    28    1
     4     1    29    1
     5     2    25   am
     6     2     3    1
     7     3     4    2
     8     3    30    1
     9     4     5    1
    10     4    23    1
    11     5     6    2
    12     5     7   am
    13     7    22    1
    14     7     8    1
    15     8     9    1
    16     8    31    1
    17     8    32    1
    18     9    10    1
    19     9    33    1
    20     9    34    1
    21    10    11    1
    22    10    35    1
    23    10    36    1
    24    11    12    1
    25    11    13    1
    26    11    22    1
    27    13    14   am
    28    13    37    1
    29    14    15    2
    30    14    16    1
    31    16    21   ar
    32    16    17   ar
    33    17    18   ar
    34    17    38    1
    35    18    19   ar
    36    18    39    1
    37    19    20   ar
    38    19    40    1
    39    20    21   ar
    40    21    41    1
    41    22    42    1
    42    22    43    1
    43    23    24    2
    44    23    44    1
    45    24    25    1
    46    24    45    1
    47    25    26    2
@<TRIPOS>SUBSTRUCTURE
     1 ZINC000951315041        1 TEMP              0 ****  ****    0 ROOT


##########                                Name:    ZINC000541568816
##########                DOCK_Rotatable_Bonds:                   8
##########                         Heavy_Atoms:                  25
##########                    Molecular_Weight:             411.339
##########                DOCK_Rotatable_Bonds:                   8
##########                       Formal_Charge:          -0.0100007
##########                     HBond_Acceptors:                   5
##########                        HBond_Donors:                   1
##########                         Heavy_Atoms:                  25
##########                          Grid_Score:          -26.782103
##########                     Grid_vdw_energy:          -25.235575
##########                      Grid_es_energy:           -1.546527
##########           Internal_energy_repulsive:           19.810474

@<TRIPOS>MOLECULE
ZINC000541568816
 52 54 1 0 0
SMALL
USER_CHARGES


@<TRIPOS>ATOM
      1 C1         -2.3718    2.7586   57.1266 C.3     1  ZINC000541568816   -0.1500
      2 C2         -2.2836    4.1568   56.5117 C.3     1  ZINC000541568816    0.0600
      3 O3         -2.7682    4.1177   55.1679 O.3     1  ZINC000541568816   -0.3700
      4 C4         -1.7657    3.8095   54.1974 C.3     1  ZINC000541568816    0.0700
      5 H5         -1.1103    2.9962   54.5089 H       1  ZINC000541568816    0.0900
      6 C6         -1.0109    5.0451   53.6760 C.3     1  ZINC000541568816   -0.1700
      7 C7         -1.0775    4.4023   52.2795 C.3     1  ZINC000541568816    0.1500
      8 H8         -1.2901    5.1129   51.4808 H       1  ZINC000541568816    0.1100
      9 N9          0.0616    3.5315   51.9786 N.am    1  ZINC000541568816   -0.7200
     10 C10         0.9194    3.8607   50.9926 C.2     1  ZINC000541568816    0.7100
     11 O11         0.7488    4.8811   50.3538 O.2     1  ZINC000541568816   -0.5800
     12 N12         1.9665    3.0589   50.7147 N.am    1  ZINC000541568816   -0.6300
     13 C13         2.8980    3.4158   49.6418 C.3     1  ZINC000541568816    0.1000
     14 C14         2.3170    2.9785   48.2956 C.3     1  ZINC000541568816   -0.1800
     15 C15         2.1730    1.8303   51.4856 C.3     1  ZINC000541568816    0.1700
     16 C16         3.1937    2.0806   52.5656 C.ar    1  ZINC000541568816   -0.0700
     17 C17         2.8480    2.8093   53.6878 C.ar    1  ZINC000541568816   -0.1000
     18 C18         3.7844    3.0390   54.6788 C.ar    1  ZINC000541568816   -0.1000
     19 C19         5.0666    2.5396   54.5477 C.ar    1  ZINC000541568816   -0.1200
     20 C20         5.4134    1.8107   53.4255 C.ar    1  ZINC000541568816   -0.0900
     21 C21         4.4755    1.5762   52.4364 C.ar    1  ZINC000541568816   -0.0900
     22 Br22        4.9492    0.5791   50.9011 Br      1  ZINC000541568816   -0.0500
     23 C23        -2.3156    3.6456   52.7769 C.3     1  ZINC000541568816    0.0800
     24 C24        -3.6515    4.3646   52.5209 C.3     1  ZINC000541568816   -0.1200
     25 C25        -4.2897    3.4792   51.4143 C.3     1  ZINC000541568816   -0.1600
     26 C26        -3.7668    2.0772   51.8185 C.3     1  ZINC000541568816    0.0500
     27 O27        -2.4362    2.3011   52.3167 O.3     1  ZINC000541568816   -0.3600
     28 H28        -3.4097    2.4254   57.1242 H       1  ZINC000541568816    0.0600
     29 H29        -1.7665    2.0658   56.5421 H       1  ZINC000541568816    0.0600
     30 H30        -2.0022    2.7884   58.1516 H       1  ZINC000541568816    0.0700
     31 H31        -2.8889    4.8496   57.0963 H       1  ZINC000541568816    0.0500
     32 H32        -1.2458    4.4900   56.5141 H       1  ZINC000541568816    0.0500
     33 H33        -1.5804    5.9709   53.7578 H       1  ZINC000541568816    0.1000
     34 H34         0.0025    5.1347   54.0673 H       1  ZINC000541568816    0.0800
     35 H35         0.1983    2.7181   52.4889 H       1  ZINC000541568816    0.4000
     36 H36         3.0515    4.4948   49.6380 H       1  ZINC000541568816    0.0900
     37 H37         3.8513    2.9135   49.8063 H       1  ZINC000541568816    0.0700
     38 H38         1.3636    3.4806   48.1310 H       1  ZINC000541568816    0.0600
     39 H39         3.0100    3.2440   47.4973 H       1  ZINC000541568816    0.0700
     40 H40         2.1633    1.8994   48.2994 H       1  ZINC000541568816    0.0600
     41 H41         1.2309    1.5238   51.9400 H       1  ZINC000541568816    0.1000
     42 H42         2.5305    1.0417   50.8235 H       1  ZINC000541568816    0.1100
     43 H43         1.8463    3.1996   53.7906 H       1  ZINC000541568816    0.1300
     44 H44         3.5141    3.6091   55.5554 H       1  ZINC000541568816    0.1300
     45 H45         5.7978    2.7193   55.3220 H       1  ZINC000541568816    0.1300
     46 H46         6.4154    1.4208   53.3230 H       1  ZINC000541568816    0.1300
     47 H47        -4.2688    4.3701   53.4191 H       1  ZINC000541568816    0.1000
     48 H48        -3.4842    5.3792   52.1592 H       1  ZINC000541568816    0.0900
     49 H49        -5.3781    3.5200   51.4579 H       1  ZINC000541568816    0.0900
     50 H50        -3.9273    3.7635   50.4264 H       1  ZINC000541568816    0.0800
     51 H51        -4.3959    1.6496   52.5992 H       1  ZINC000541568816    0.0600
     52 H52        -3.7399    1.4187   50.9503 H       1  ZINC000541568816    0.0900
@<TRIPOS>BOND
     1     1     2    1
     2     1    28    1
     3     1    29    1
     4     1    30    1
     5     2     3    1
     6     2    31    1
     7     2    32    1
     8     3     4    1
     9     4     5    1
    10     4    23    1
    11     4     6    1
    12     6     7    1
    13     6    33    1
    14     6    34    1
    15     7     8    1
    16     7     9    1
    17     7    23    1
    18     9    10   am
    19     9    35    1
    20    10    11    2
    21    10    12   am
    22    12    13    1
    23    12    15    1
    24    13    14    1
    25    13    36    1
    26    13    37    1
    27    14    38    1
    28    14    39    1
    29    14    40    1
    30    15    16    1
    31    15    41    1
    32    15    42    1
    33    16    21   ar
    34    16    17   ar
    35    17    18   ar
    36    17    43    1
    37    18    19   ar
    38    18    44    1
    39    19    20   ar
    40    19    45    1
    41    20    21   ar
    42    20    46    1
    43    21    22    1
    44    23    27    1
    45    23    24    1
    46    24    25    1
    47    24    47    1
    48    24    48    1
    49    25    26    1
    50    25    49    1
    51    25    50    1
    52    26    27    1
    53    26    51    1
    54    26    52    1
@<TRIPOS>SUBSTRUCTURE
     1 ZINC000541568816        1 TEMP              0 ****  ****    0 ROOT


##########                                Name:    ZINC000566738344
##########                DOCK_Rotatable_Bonds:                   5
##########                         Heavy_Atoms:                  23
##########                    Molecular_Weight:             352.478
##########                DOCK_Rotatable_Bonds:                   5
##########                       Formal_Charge:           0.0100005
##########                     HBond_Acceptors:                   7
##########                        HBond_Donors:                   0
##########                         Heavy_Atoms:                  23
##########                          Grid_Score:          -26.758362
##########                     Grid_vdw_energy:          -26.341173
##########                      Grid_es_energy:           -0.417189
##########           Internal_energy_repulsive:           23.933619

@<TRIPOS>MOLECULE
ZINC000566738344
 43 44 1 0 0
SMALL
USER_CHARGES


@<TRIPOS>ATOM
      1 C1         -2.0990    5.1011   52.8069 C.3     1  ZINC000566738344   -0.1300
      2 C2         -2.1158    3.8000   52.0468 C.ar    1  ZINC000566738344   -0.0100
      3 C3         -3.1631    2.9221   52.2072 C.ar    1  ZINC000566738344   -0.1000
      4 C4         -3.1790    1.7192   51.5055 C.ar    1  ZINC000566738344   -0.0500
      5 S5         -4.5217    0.5975   51.7143 S.3     1  ZINC000566738344   -0.0300
      6 C6         -5.9668    1.6933   51.7530 C.3     1  ZINC000566738344   -0.1200
      7 H7         -5.6989    2.6309   52.2401 H       1  ZINC000566738344    0.1200
      8 C8         -6.4311    1.9759   50.3229 C.3     1  ZINC000566738344   -0.1300
      9 C9         -7.0806    1.0289   52.5206 C.2     1  ZINC000566738344    0.5200
     10 O10        -7.0795   -0.1746   52.6711 O.2     1  ZINC000566738344   -0.5000
     11 N11        -8.0779    1.7720   53.0398 N.am    1  ZINC000566738344   -0.6000
     12 C12        -8.0802    3.2254   52.8565 C.3     1  ZINC000566738344    0.0600
     13 C13        -9.1597    1.1263   53.7876 C.3     1  ZINC000566738344    0.1500
     14 H14        -8.7655    0.7062   54.7129 H       1  ZINC000566738344    0.1300
     15 C15       -10.2523    2.1599   54.1128 C.3     1  ZINC000566738344   -0.1300
     16 C16       -11.4897    1.3601   54.5958 C.3     1  ZINC000566738344   -0.5900
     17 S17       -11.5450   -0.0405   53.4148 S.o2    1  ZINC000566738344    2.4000
     18 O18       -11.8112   -1.2433   54.1229 O.2     1  ZINC000566738344   -0.9300
     19 O19       -12.3487    0.3163   52.2985 O.2     1  ZINC000566738344   -0.9300
     20 C20        -9.7828    0.0046   52.9331 C.3     1  ZINC000566738344   -0.6200
     21 C21        -2.1365    1.4013   50.6390 C.ar    1  ZINC000566738344   -0.1400
     22 C22        -1.0862    2.2752   50.4741 C.ar    1  ZINC000566738344   -0.0400
     23 C23        -1.0698    3.4860   51.1731 C.ar    1  ZINC000566738344   -0.0400
     24 C24         0.0217    4.3975   51.0038 C.1     1  ZINC000566738344    0.2500
     25 N25         0.8875    5.1206   50.8695 N.1     1  ZINC000566738344   -0.4100
     26 H26        -2.6009    5.8709   52.2206 H       1  ZINC000566738344    0.0800
     27 H27        -2.6168    4.9732   53.7575 H       1  ZINC000566738344    0.0800
     28 H28        -1.0674    5.4003   52.9923 H       1  ZINC000566738344    0.0700
     29 H29        -3.9733    3.1659   52.8784 H       1  ZINC000566738344    0.1400
     30 H30        -6.7826    1.0511   49.8654 H       1  ZINC000566738344    0.0800
     31 H31        -7.2426    2.7034   50.3413 H       1  ZINC000566738344    0.0800
     32 H32        -5.5989    2.3747   49.7428 H       1  ZINC000566738344    0.0900
     33 H33        -8.6162    3.4754   51.9409 H       1  ZINC000566738344    0.0700
     34 H34        -8.5727    3.6980   53.7063 H       1  ZINC000566738344    0.0800
     35 H35        -7.0534    3.5844   52.7859 H       1  ZINC000566738344    0.0800
     36 H36        -9.9097    2.8296   54.9017 H       1  ZINC000566738344    0.1100
     37 H37       -10.5029    2.7319   53.2195 H       1  ZINC000566738344    0.0900
     38 H38       -11.3450    1.0015   55.6148 H       1  ZINC000566738344    0.1400
     39 H39       -12.3939    1.9644   54.5219 H       1  ZINC000566738344    0.1400
     40 H40        -9.6860    0.2366   51.8725 H       1  ZINC000566738344    0.1400
     41 H41        -9.3044   -0.9487   53.1581 H       1  ZINC000566738344    0.1500
     42 H42        -2.1520    0.4679   50.0959 H       1  ZINC000566738344    0.1200
     43 H43        -0.2777    2.0278   49.8021 H       1  ZINC000566738344    0.1400
@<TRIPOS>BOND
     1     1     2    1
     2     1    26    1
     3     1    27    1
     4     1    28    1
     5     2    23   ar
     6     2     3   ar
     7     3     4   ar
     8     3    29    1
     9     4     5    1
    10     4    21   ar
    11     5     6    1
    12     6     7    1
    13     6     8    1
    14     6     9    1
    15     8    30    1
    16     8    31    1
    17     8    32    1
    18     9    10    2
    19     9    11   am
    20    11    12    1
    21    11    13    1
    22    12    33    1
    23    12    34    1
    24    12    35    1
    25    13    14    1
    26    13    20    1
    27    13    15    1
    28    15    16    1
    29    15    36    1
    30    15    37    1
    31    16    17    1
    32    16    38    1
    33    16    39    1
    34    17    18    2
    35    17    19    2
    36    17    20    1
    37    20    40    1
    38    20    41    1
    39    21    22   ar
    40    21    42    1
    41    22    23   ar
    42    22    43    1
    43    23    24    1
    44    24    25    3
@<TRIPOS>SUBSTRUCTURE
     1 ZINC000566738344        1 TEMP              0 ****  ****    0 ROOT


##########                                Name:    ZINC000371438955
##########                DOCK_Rotatable_Bonds:                   4
##########                         Heavy_Atoms:                  25
##########                    Molecular_Weight:             387.499
##########                DOCK_Rotatable_Bonds:                   4
##########                       Formal_Charge:          -0.0299995
##########                     HBond_Acceptors:                   9
##########                        HBond_Donors:                   1
##########                         Heavy_Atoms:                  25
##########                          Grid_Score:          -26.734531
##########                     Grid_vdw_energy:          -24.225254
##########                      Grid_es_energy:           -2.509278
##########           Internal_energy_repulsive:           33.628998

@<TRIPOS>MOLECULE
ZINC000371438955
 47 49 1 0 0
SMALL
USER_CHARGES


@<TRIPOS>ATOM
      1 C1          1.2113    4.9956   55.3463 C.3     1  ZINC000371438955   -0.6800
      2 S2          0.8133    6.1371   56.6987 S.o2    1  ZINC000371438955    2.6000
      3 O3          1.8647    6.1638   57.6543 O.2     1  ZINC000371438955   -0.9500
      4 O4          0.2569    7.3407   56.1879 O.2     1  ZINC000371438955   -0.9500
      5 N5         -0.4442    5.4116   57.4953 N.am    1  ZINC000371438955   -0.9900
      6 C6         -0.2452    4.1113   58.0683 C.3     1  ZINC000371438955    0.1300
      7 C7         -0.5279    3.0643   56.9779 C.3     1  ZINC000371438955   -0.1700
      8 C8         -1.9709    2.8588   56.7773 C.3     1  ZINC000371438955    0.1400
      9 N9         -2.6267    4.1354   56.4072 N.am    1  ZINC000371438955   -0.6200
     10 C10        -2.9625    4.3724   55.1236 C.2     1  ZINC000371438955    0.7100
     11 O11        -3.5005    5.4194   54.8194 O.2     1  ZINC000371438955   -0.5800
     12 N12        -2.7019    3.4488   54.1773 N.am    1  ZINC000371438955   -0.7400
     13 C13        -3.0669    3.7064   52.7821 C.3     1  ZINC000371438955    0.2000
     14 H14        -2.9862    4.7769   52.5932 H       1  ZINC000371438955    0.1100
     15 C15        -4.5101    3.2830   52.5710 C.3     1  ZINC000371438955   -0.1300
     16 C16        -4.9126    3.5876   51.1212 C.3     1  ZINC000371438955   -0.1100
     17 S17        -4.0702    2.3780   50.0604 S.3     1  ZINC000371438955   -0.1000
     18 C18        -2.4203    2.3995   50.6857 C.ar    1  ZINC000371438955   -0.1100
     19 C19        -1.4253    1.7901   49.9159 C.ar    1  ZINC000371438955    0.1100
     20 F20        -1.7476    1.2223   48.7331 F       1  ZINC000371438955   -0.1300
     21 C21        -0.1172    1.7638   50.3529 C.ar    1  ZINC000371438955   -0.1300
     22 C22         0.2072    2.3439   51.5661 C.ar    1  ZINC000371438955   -0.1000
     23 C23        -0.7714    2.9477   52.3250 C.ar    1  ZINC000371438955   -0.1000
     24 C24        -2.0970    2.9871   51.8913 C.ar    1  ZINC000371438955   -0.0800
     25 C25        -2.9050    5.1198   57.4152 C.3     1  ZINC000371438955    0.1000
     26 C26        -1.7426    6.1319   57.5993 C.3     1  ZINC000371438955    0.0900
     27 H27         1.4955    4.0278   55.7594 H       1  ZINC000371438955    0.1300
     28 H28         0.3388    4.8745   54.7043 H       1  ZINC000371438955    0.1300
     29 H29         2.0388    5.3985   54.7623 H       1  ZINC000371438955    0.1300
     30 H30         0.7840    4.0147   58.4142 H       1  ZINC000371438955    0.0800
     31 H31        -0.9305    3.9679   58.9036 H       1  ZINC000371438955    0.0800
     32 H32        -0.0833    3.3987   56.0406 H       1  ZINC000371438955    0.0800
     33 H33        -0.0714    2.1178   57.2678 H       1  ZINC000371438955    0.0900
     34 H34        -2.1244    2.1303   55.9812 H       1  ZINC000371438955    0.0900
     35 H35        -2.4129    2.4802   57.6990 H       1  ZINC000371438955    0.0700
     36 H36        -2.2727    2.6135   54.4201 H       1  ZINC000371438955    0.4000
     37 H37        -4.6079    2.2139   52.7598 H       1  ZINC000371438955    0.0900
     38 H38        -5.1560    3.8360   53.2529 H       1  ZINC000371438955    0.1000
     39 H39        -5.9924    3.4914   51.0082 H       1  ZINC000371438955    0.1200
     40 H40        -4.5994    4.5970   50.8537 H       1  ZINC000371438955    0.1000
     41 H41         0.6476    1.2935   49.7528 H       1  ZINC000371438955    0.1400
     42 H42         1.2278    2.3233   51.9185 H       1  ZINC000371438955    0.1300
     43 H43        -0.5083    3.3963   53.2715 H       1  ZINC000371438955    0.1400
     44 H44        -3.8067    5.6651   57.1362 H       1  ZINC000371438955    0.0800
     45 H45        -3.0811    4.6131   58.3640 H       1  ZINC000371438955    0.0900
     46 H46        -1.8247    6.6058   58.5775 H       1  ZINC000371438955    0.0800
     47 H47        -1.7967    6.8929   56.8208 H       1  ZINC000371438955    0.1000
@<TRIPOS>BOND
     1     1     2    1
     2     1    27    1
     3     1    28    1
     4     1    29    1
     5     2     3    2
     6     2     4    2
     7     2     5   am
     8     5    26    1
     9     5     6    1
    10     6     7    1
    11     6    30    1
    12     6    31    1
    13     7     8    1
    14     7    32    1
    15     7    33    1
    16     8     9    1
    17     8    34    1
    18     8    35    1
    19     9    10   am
    20     9    25    1
    21    10    11    2
    22    10    12   am
    23    12    13    1
    24    12    36    1
    25    13    14    1
    26    13    24    1
    27    13    15    1
    28    15    16    1
    29    15    37    1
    30    15    38    1
    31    16    17    1
    32    16    39    1
    33    16    40    1
    34    17    18    1
    35    18    24   ar
    36    18    19   ar
    37    19    20    1
    38    19    21   ar
    39    21    22   ar
    40    21    41    1
    41    22    23   ar
    42    22    42    1
    43    23    24   ar
    44    23    43    1
    45    25    26    1
    46    25    44    1
    47    25    45    1
    48    26    46    1
    49    26    47    1
@<TRIPOS>SUBSTRUCTURE
     1 ZINC000371438955        1 TEMP              0 ****  ****    0 ROOT


##########                                Name:    ZINC000866034032
##########                DOCK_Rotatable_Bonds:                   4
##########                         Heavy_Atoms:                  23
##########                    Molecular_Weight:             383.242
##########                DOCK_Rotatable_Bonds:                   4
##########                       Formal_Charge:           0.0199999
##########                     HBond_Acceptors:                   6
##########                        HBond_Donors:                   1
##########                         Heavy_Atoms:                  23
##########                          Grid_Score:          -26.657866
##########                     Grid_vdw_energy:          -26.616472
##########                      Grid_es_energy:           -0.041394
##########           Internal_energy_repulsive:           12.424262

@<TRIPOS>MOLECULE
ZINC000866034032
 42 44 1 0 0
SMALL
USER_CHARGES


@<TRIPOS>ATOM
      1 C1        -10.3281   -0.7683   59.8680 C.3     1  ZINC000866034032   -0.1300
      2 C2        -11.0705   -0.2729   58.6253 C.3     1  ZINC000866034032   -0.0800
      3 C3        -10.6357    1.1295   58.1949 C.3     1  ZINC000866034032   -0.1300
      4 C4        -11.0891   -1.2914   57.4750 C.3     1  ZINC000866034032    0.1400
      5 H5        -10.2644   -2.0032   57.5105 H       1  ZINC000866034032    0.1100
      6 N6        -11.2539   -0.6792   56.1543 N.am    1  ZINC000866034032   -0.7000
      7 C7        -10.7170   -1.2675   55.0671 C.2     1  ZINC000866034032    0.5100
      8 O8        -10.0963   -2.3030   55.1823 O.2     1  ZINC000866034032   -0.5300
      9 C9        -10.8880   -0.6388   53.7082 C.3     1  ZINC000866034032   -0.1100
     10 C10        -9.6865    0.2155   53.3952 C.ar    1  ZINC000866034032   -0.0500
     11 C11        -9.6694    1.5465   53.7677 C.ar    1  ZINC000866034032   -0.0500
     12 C12        -8.5678    2.3307   53.4805 C.ar    1  ZINC000866034032   -0.0900
     13 C13        -7.4825    1.7831   52.8207 C.ar    1  ZINC000866034032   -0.0500
     14 Br14       -5.9751    2.8551   52.4280 Br      1  ZINC000866034032    0.0200
     15 C15        -7.5000    0.4508   52.4485 C.ar    1  ZINC000866034032   -0.0200
     16 N16        -6.3388   -0.1358   51.7429 N.pl3   1  ZINC000866034032    0.0200
     17 O17        -6.3543   -1.3089   51.4153 O.2     1  ZINC000866034032   -0.1600
     18 O18        -5.3676    0.5544   51.4898 O.2     1  ZINC000866034032   -0.1300
     19 C19        -8.5996   -0.3337   52.7407 C.ar    1  ZINC000866034032   -0.0300
     20 C20       -12.3982   -1.8384   58.0674 C.3     1  ZINC000866034032   -0.1500
     21 H21       -12.3057   -2.6884   58.7434 H       1  ZINC000866034032    0.1200
     22 C22       -13.5314   -1.9449   57.0227 C.3     1  ZINC000866034032   -0.1400
     23 C23       -14.2888   -0.6049   57.1497 C.3     1  ZINC000866034032    0.0500
     24 O24       -13.3214    0.3149   57.7005 O.3     1  ZINC000866034032   -0.3600
     25 C25       -12.5944   -0.4427   58.7129 C.3     1  ZINC000866034032    0.0600
     26 H26       -13.0350   -0.4174   59.7095 H       1  ZINC000866034032    0.1000
     27 H27       -10.7805   -1.6972   60.2153 H       1  ZINC000866034032    0.0600
     28 H28        -9.2815   -0.9444   59.6198 H       1  ZINC000866034032    0.0700
     29 H29       -10.3934   -0.0161   60.6542 H       1  ZINC000866034032    0.0700
     30 H30        -9.6190    1.0907   57.8040 H       1  ZINC000866034032    0.0600
     31 H31       -11.3090    1.4969   57.4203 H       1  ZINC000866034032    0.0600
     32 H32       -10.6695    1.7999   59.0536 H       1  ZINC000866034032    0.0600
     33 H33       -11.7494    0.1497   56.0622 H       1  ZINC000866034032    0.4100
     34 H34       -10.9834   -1.4211   52.9552 H       1  ZINC000866034032    0.1100
     35 H35       -11.7850   -0.0196   53.7046 H       1  ZINC000866034032    0.1200
     36 H36       -10.5169    1.9740   54.2829 H       1  ZINC000866034032    0.1500
     37 H37        -8.5547    3.3708   53.7708 H       1  ZINC000866034032    0.1600
     38 H38        -8.6132   -1.3739   52.4506 H       1  ZINC000866034032    0.1600
     39 H39       -13.1173   -2.0559   56.0205 H       1  ZINC000866034032    0.0800
     40 H40       -14.1909   -2.7801   57.2587 H       1  ZINC000866034032    0.0800
     41 H41       -14.6223   -0.2631   56.1699 H       1  ZINC000866034032    0.0900
     42 H42       -15.1380   -0.7116   57.8247 H       1  ZINC000866034032    0.0600
@<TRIPOS>BOND
     1     1     2    1
     2     1    27    1
     3     1    28    1
     4     1    29    1
     5     2    25    1
     6     2     3    1
     7     2     4    1
     8     3    30    1
     9     3    31    1
    10     3    32    1
    11     4     5    1
    12     4     6    1
    13     4    20    1
    14     6     7   am
    15     6    33    1
    16     7     8    2
    17     7     9    1
    18     9    10    1
    19     9    34    1
    20     9    35    1
    21    10    19   ar
    22    10    11   ar
    23    11    12   ar
    24    11    36    1
    25    12    13   ar
    26    12    37    1
    27    13    14    1
    28    13    15   ar
    29    15    16    1
    30    15    19   ar
    31    16    17    2
    32    16    18    2
    33    19    38    1
    34    20    21    1
    35    20    25    1
    36    20    22    1
    37    22    23    1
    38    22    39    1
    39    22    40    1
    40    23    24    1
    41    23    41    1
    42    23    42    1
    43    24    25    1
    44    25    26    1
@<TRIPOS>SUBSTRUCTURE
     1 ZINC000866034032        1 TEMP              0 ****  ****    0 ROOT


##########                                Name:    ZINC000516003207
##########                DOCK_Rotatable_Bonds:                   5
##########                         Heavy_Atoms:                  24
##########                    Molecular_Weight:             342.462
##########                DOCK_Rotatable_Bonds:                   5
##########                       Formal_Charge:          -0.0200001
##########                     HBond_Acceptors:                   5
##########                        HBond_Donors:                   1
##########                         Heavy_Atoms:                  24
##########                          Grid_Score:          -26.619970
##########                     Grid_vdw_energy:          -26.715261
##########                      Grid_es_energy:            0.095292
##########           Internal_energy_repulsive:            9.674632

@<TRIPOS>MOLECULE
ZINC000516003207
 46 49 1 0 0
SMALL
USER_CHARGES


@<TRIPOS>ATOM
      1 C1         -2.7496    2.0518   50.8024 C.3     1  ZINC000516003207    0.0300
      2 O2         -3.7731    1.5169   51.6441 O.3     1  ZINC000516003207   -0.3600
      3 C3         -5.0772    1.5412   51.0605 C.3     1  ZINC000516003207    0.0900
      4 H4         -5.0563    1.7018   49.9826 H       1  ZINC000516003207    0.0800
      5 C5         -5.9696    0.3635   51.4925 C.3     1  ZINC000516003207   -0.1700
      6 C6         -6.4388    1.2441   52.6649 C.3     1  ZINC000516003207    0.1500
      7 H7         -5.8268    1.1421   53.5610 H       1  ZINC000516003207    0.1200
      8 N8         -7.8740    1.1406   52.9403 N.am    1  ZINC000516003207   -0.7200
      9 C9         -8.3676    1.5771   54.1161 C.2     1  ZINC000516003207    0.5600
     10 O10        -7.6224    2.0580   54.9472 O.2     1  ZINC000516003207   -0.5300
     11 C11        -9.8159    1.4711   54.3949 C.ar    1  ZINC000516003207   -0.1400
     12 C12       -10.2980    1.6916   55.6865 C.ar    1  ZINC000516003207   -0.0800
     13 C13       -11.6502    1.5923   55.9473 C.ar    1  ZINC000516003207   -0.1200
     14 C14       -12.5333    1.2751   54.9340 C.ar    1  ZINC000516003207   -0.0800
     15 C15       -12.0643    1.0529   53.6393 C.ar    1  ZINC000516003207   -0.0300
     16 C16       -13.0153    0.7123   52.5528 C.2     1  ZINC000516003207    0.1100
     17 C17       -14.3223    0.4649   52.7726 C.2     1  ZINC000516003207   -0.2600
     18 S18       -15.0736    0.1071   51.2199 S.3     1  ZINC000516003207    0.1400
     19 C19       -13.5734    0.3220   50.4297 C.2     1  ZINC000516003207    0.0600
     20 C20       -13.3556    0.1773   48.9455 C.3     1  ZINC000516003207   -0.0800
     21 N21       -12.6561    0.6300   51.2799 N.2     1  ZINC000516003207   -0.4700
     22 C22       -10.7041    1.1564   53.3676 C.ar    1  ZINC000516003207   -0.0300
     23 C23        -6.0624    2.4493   51.7971 C.3     1  ZINC000516003207   -0.1100
     24 C24        -5.6069    3.7660   52.4274 C.3     1  ZINC000516003207   -0.1200
     25 C25        -6.2046    4.4638   51.1922 C.3     1  ZINC000516003207   -0.1400
     26 C26        -7.1282    3.2417   51.0393 C.3     1  ZINC000516003207   -0.1200
     27 H27        -2.9780    3.0917   50.5688 H       1  ZINC000516003207    0.0400
     28 H28        -1.7904    1.9974   51.3174 H       1  ZINC000516003207    0.0900
     29 H29        -2.6996    1.4745   49.8793 H       1  ZINC000516003207    0.0400
     30 H30        -6.7598    0.1304   50.7789 H       1  ZINC000516003207    0.0900
     31 H31        -5.4084   -0.5168   51.8058 H       1  ZINC000516003207    0.0800
     32 H32        -8.4689    0.7581   52.2766 H       1  ZINC000516003207    0.4000
     33 H33        -9.6121    1.9400   56.4829 H       1  ZINC000516003207    0.1300
     34 H34       -12.0187    1.7630   56.9481 H       1  ZINC000516003207    0.1400
     35 H35       -13.5898    1.1985   55.1447 H       1  ZINC000516003207    0.1300
     36 H36       -14.8202    0.4826   53.7308 H       1  ZINC000516003207    0.1800
     37 H37       -14.2979   -0.0837   48.4638 H       1  ZINC000516003207    0.0800
     38 H38       -12.9883    1.1195   48.5387 H       1  ZINC000516003207    0.0900
     39 H39       -12.6231   -0.6084   48.7606 H       1  ZINC000516003207    0.0900
     40 H40       -10.3365    0.9851   52.3666 H       1  ZINC000516003207    0.1500
     41 H41        -6.1215    4.0068   53.3577 H       1  ZINC000516003207    0.0800
     42 H42        -4.5239    3.8630   52.5035 H       1  ZINC000516003207    0.0800
     43 H43        -6.7365    5.3856   51.4269 H       1  ZINC000516003207    0.0700
     44 H44        -5.4962    4.5803   50.3718 H       1  ZINC000516003207    0.0800
     45 H45        -7.2605    2.9197   50.0063 H       1  ZINC000516003207    0.0700
     46 H46        -8.0704    3.3351   51.5793 H       1  ZINC000516003207    0.0900
@<TRIPOS>BOND
     1     1     2    1
     2     1    27    1
     3     1    28    1
     4     1    29    1
     5     2     3    1
     6     3     4    1
     7     3    23    1
     8     3     5    1
     9     5     6    1
    10     5    30    1
    11     5    31    1
    12     6     7    1
    13     6     8    1
    14     6    23    1
    15     8     9   am
    16     8    32    1
    17     9    10    2
    18     9    11    1
    19    11    22   ar
    20    11    12   ar
    21    12    13   ar
    22    12    33    1
    23    13    14   ar
    24    13    34    1
    25    14    15   ar
    26    14    35    1
    27    15    16    1
    28    15    22   ar
    29    16    21    1
    30    16    17    2
    31    17    18    1
    32    17    36    1
    33    18    19    1
    34    19    20    1
    35    19    21    2
    36    20    37    1
    37    20    38    1
    38    20    39    1
    39    22    40    1
    40    23    26    1
    41    23    24    1
    42    24    25    1
    43    24    41    1
    44    24    42    1
    45    25    26    1
    46    25    43    1
    47    25    44    1
    48    26    45    1
    49    26    46    1
@<TRIPOS>SUBSTRUCTURE
     1 ZINC000516003207        1 TEMP              0 ****  ****    0 ROOT


##########                                Name:    ZINC000971513996
##########                DOCK_Rotatable_Bonds:                   6
##########                         Heavy_Atoms:                  27
##########                    Molecular_Weight:             369.464
##########                DOCK_Rotatable_Bonds:                   6
##########                       Formal_Charge:          -0.0300002
##########                     HBond_Acceptors:                   6
##########                        HBond_Donors:                   1
##########                         Heavy_Atoms:                  27
##########                          Grid_Score:          -26.539251
##########                     Grid_vdw_energy:          -26.564739
##########                      Grid_es_energy:            0.025487
##########           Internal_energy_repulsive:           19.420637

@<TRIPOS>MOLECULE
ZINC000971513996
 54 57 1 0 0
SMALL
USER_CHARGES


@<TRIPOS>ATOM
      1 C1        -11.2965   -2.9977   58.3918 C.3     1  ZINC000971513996   -0.1600
      2 C2        -10.4607   -1.7823   57.9853 C.3     1  ZINC000971513996   -0.1400
      3 C3        -11.3706   -0.7244   57.3578 C.3     1  ZINC000971513996    0.0800
      4 H4        -12.3816   -0.8361   57.7497 H       1  ZINC000971513996    0.0800
      5 O5        -10.8772    0.5782   57.6767 O.3     1  ZINC000971513996   -0.3600
      6 C6        -11.2034    1.0159   58.9974 C.3     1  ZINC000971513996    0.0200
      7 C7        -11.3896   -0.9019   55.8614 C.2     1  ZINC000971513996    0.5400
      8 O8        -10.8003   -1.8323   55.3535 O.2     1  ZINC000971513996   -0.5100
      9 N9        -12.0616   -0.0268   55.0874 N.am    1  ZINC000971513996   -0.6400
     10 C10       -12.8715    1.1850   55.2992 C.3     1  ZINC000971513996    0.1000
     11 C11       -12.4247    1.6501   53.8998 C.3     1  ZINC000971513996   -0.1200
     12 H12       -13.1927    2.1558   53.3146 H       1  ZINC000971513996    0.1100
     13 C13       -11.0952    2.4062   53.9609 C.3     1  ZINC000971513996   -0.1200
     14 C14       -10.2538    2.0462   52.7330 C.3     1  ZINC000971513996    0.1100
     15 N15       -10.0472    0.5956   52.7274 N.am    1  ZINC000971513996   -0.6000
     16 C16        -8.7945    0.0987   52.7036 C.2     1  ZINC000971513996    0.5900
     17 O17        -8.6175   -1.1047   52.6989 O.2     1  ZINC000971513996   -0.5200
     18 C18        -7.6417    1.0116   52.6833 C.2     1  ZINC000971513996    0.0200
     19 C19        -6.8421    1.2466   51.6103 C.2     1  ZINC000971513996   -0.1000
     20 C20        -5.8558    2.1830   52.0044 C.ar    1  ZINC000971513996   -0.1100
     21 C21        -4.7835    2.7889   51.3376 C.ar    1  ZINC000971513996   -0.0600
     22 C22        -3.9856    3.6757   52.0004 C.ar    1  ZINC000971513996   -0.1200
     23 C23        -2.8326    4.3257   51.2800 C.3     1  ZINC000971513996   -0.1100
     24 C24        -4.2267    3.9852   53.3329 C.ar    1  ZINC000971513996   -0.0800
     25 C25        -5.2747    3.4028   54.0103 C.ar    1  ZINC000971513996   -0.1300
     26 C26        -6.1023    2.4948   53.3561 C.ar    1  ZINC000971513996    0.1100
     27 N27        -7.2029    1.7713   53.7504 N.pl3   1  ZINC000971513996   -0.5800
     28 C28       -11.1851   -0.3141   52.7479 C.3     1  ZINC000971513996    0.0700
     29 C29       -12.3110    0.1527   53.6553 C.3     1  ZINC000971513996    0.1300
     30 H30       -13.2643   -0.2850   53.3592 H       1  ZINC000971513996    0.1100
     31 H31       -10.6368   -3.7915   58.7423 H       1  ZINC000971513996    0.0600
     32 H32       -11.9826   -2.7163   59.1905 H       1  ZINC000971513996    0.0600
     33 H33       -11.8654   -3.3514   57.5319 H       1  ZINC000971513996    0.0600
     34 H34        -9.9731   -1.3656   58.8667 H       1  ZINC000971513996    0.0800
     35 H35        -9.7046   -2.0868   57.2616 H       1  ZINC000971513996    0.0800
     36 H36       -12.2830    1.1393   59.0830 H       1  ZINC000971513996    0.0400
     37 H37       -10.8640    0.2741   59.7203 H       1  ZINC000971513996    0.0500
     38 H38       -10.7120    1.9683   59.1961 H       1  ZINC000971513996    0.0900
     39 H39       -13.9410    0.9867   55.3709 H       1  ZINC000971513996    0.0900
     40 H40       -12.5039    1.8187   56.1063 H       1  ZINC000971513996    0.0800
     41 H41       -11.2867    3.4792   53.9692 H       1  ZINC000971513996    0.0900
     42 H42       -10.5573    2.1244   54.8661 H       1  ZINC000971513996    0.0700
     43 H43       -10.7795    2.3461   51.8264 H       1  ZINC000971513996    0.0800
     44 H44        -9.2910    2.5545   52.7853 H       1  ZINC000971513996    0.1000
     45 H45        -6.9411    0.7994   50.6321 H       1  ZINC000971513996    0.1500
     46 H46        -4.5882    2.5545   50.3016 H       1  ZINC000971513996    0.1200
     47 H47        -3.1701    5.2528   50.8164 H       1  ZINC000971513996    0.0700
     48 H48        -2.0363    4.5442   51.9915 H       1  ZINC000971513996    0.0600
     49 H49        -2.4576    3.6505   50.5109 H       1  ZINC000971513996    0.0600
     50 H50        -3.5858    4.6891   53.8428 H       1  ZINC000971513996    0.1300
     51 H51        -5.4539    3.6496   55.0464 H       1  ZINC000971513996    0.1200
     52 H52        -7.6046    1.7904   54.6331 H       1  ZINC000971513996    0.4200
     53 H53       -11.5803   -0.4049   51.7361 H       1  ZINC000971513996    0.0800
     54 H54       -10.8444   -1.2953   53.0786 H       1  ZINC000971513996    0.1200
@<TRIPOS>BOND
     1     1     2    1
     2     1    31    1
     3     1    32    1
     4     1    33    1
     5     2     3    1
     6     2    34    1
     7     2    35    1
     8     3     4    1
     9     3     5    1
    10     3     7    1
    11     5     6    1
    12     6    36    1
    13     6    37    1
    14     6    38    1
    15     7     8    2
    16     7     9   am
    17     9    29    1
    18     9    10    1
    19    10    11    1
    20    10    39    1
    21    10    40    1
    22    11    12    1
    23    11    29    1
    24    11    13    1
    25    13    14    1
    26    13    41    1
    27    13    42    1
    28    14    15    1
    29    14    43    1
    30    14    44    1
    31    15    16   am
    32    15    28    1
    33    16    17    2
    34    16    18    1
    35    18    27    1
    36    18    19    2
    37    19    20    1
    38    19    45    1
    39    20    26   ar
    40    20    21   ar
    41    21    22   ar
    42    21    46    1
    43    22    23    1
    44    22    24   ar
    45    23    47    1
    46    23    48    1
    47    23    49    1
    48    24    25   ar
    49    24    50    1
    50    25    26   ar
    51    25    51    1
    52    26    27    1
    53    27    52    1
    54    28    29    1
    55    28    53    1
    56    28    54    1
    57    29    30    1
@<TRIPOS>SUBSTRUCTURE
     1 ZINC000971513996        1 TEMP              0 ****  ****    0 ROOT


##########                                Name:    ZINC000535362552
##########                DOCK_Rotatable_Bonds:                   5
##########                         Heavy_Atoms:                  26
##########                    Molecular_Weight:             416.228
##########                DOCK_Rotatable_Bonds:                   5
##########                       Formal_Charge:         -0.00999981
##########                     HBond_Acceptors:                   6
##########                        HBond_Donors:                   1
##########                         Heavy_Atoms:                  26
##########                          Grid_Score:          -26.521641
##########                     Grid_vdw_energy:          -26.484936
##########                      Grid_es_energy:           -0.036704
##########           Internal_energy_repulsive:            8.386648

@<TRIPOS>MOLECULE
ZINC000535362552
 40 43 1 0 0
SMALL
USER_CHARGES


@<TRIPOS>ATOM
      1 C1          2.5456    1.3278   47.7420 C.3     1  ZINC000535362552    0.0300
      2 O2          1.2026    1.5758   48.2350 O.3     1  ZINC000535362552   -0.3400
      3 C3          1.0615    1.7540   49.5643 C.2     1  ZINC000535362552    0.5500
      4 O4          2.0348    1.7029   50.2912 O.2     1  ZINC000535362552   -0.4800
      5 C5         -0.2673    2.0097   50.1337 C.2     1  ZINC000535362552   -0.0100
      6 C6         -0.5181    2.2868   51.4403 C.2     1  ZINC000535362552   -0.0900
      7 C7         -1.9654    2.4679   51.5453 C.ar    1  ZINC000535362552   -0.1300
      8 C8         -2.8336    2.7652   52.5982 C.ar    1  ZINC000535362552   -0.0600
      9 C9         -4.1902    2.8697   52.3540 C.ar    1  ZINC000535362552    0.1200
     10 N10        -5.0684    3.1681   53.4041 N.am    1  ZINC000535362552   -0.6700
     11 C11        -6.1085    2.3517   53.6653 C.2     1  ZINC000535362552    0.5200
     12 O12        -6.2843    1.3587   52.9913 O.2     1  ZINC000535362552   -0.5000
     13 C13        -7.0531    2.6727   54.7947 C.3     1  ZINC000535362552   -0.1000
     14 H14        -6.6952    2.2470   55.7322 H       1  ZINC000535362552    0.1300
     15 C15        -7.2607    4.2002   54.9248 C.3     1  ZINC000535362552    0.0600
     16 O16        -8.6470    4.3031   55.2914 O.3     1  ZINC000535362552   -0.2900
     17 C17        -9.3231    3.2307   54.7947 C.ar    1  ZINC000535362552    0.1300
     18 C18       -10.6875    3.0579   54.5774 C.ar    1  ZINC000535362552   -0.1300
     19 C19       -11.1649    1.8686   54.0664 C.ar    1  ZINC000535362552   -0.0500
     20 C20       -10.2933    0.8374   53.7657 C.ar    1  ZINC000535362552   -0.1200
     21 Br21      -10.9548   -0.7921   53.0706 Br      1  ZINC000535362552   -0.0400
     22 C22        -8.9347    1.0031   53.9753 C.ar    1  ZINC000535362552   -0.0100
     23 C23        -8.4563    2.1904   54.4813 C.ar    1  ZINC000535362552   -0.1600
     24 C24        -4.6864    2.6792   51.0654 C.ar    1  ZINC000535362552   -0.0900
     25 C25        -3.8374    2.3852   50.0217 C.ar    1  ZINC000535362552   -0.0900
     26 C26        -2.4698    2.2761   50.2452 C.ar    1  ZINC000535362552    0.0700
     27 O27        -1.4234    2.0109   49.4377 O.3     1  ZINC000535362552   -0.1700
     28 H28         2.9401    0.4220   48.2024 H       1  ZINC000535362552    0.0700
     29 H29         2.5179    1.2027   46.6596 H       1  ZINC000535362552    0.1100
     30 H30         3.1868    2.1724   47.9939 H       1  ZINC000535362552    0.0700
     31 H31         0.2049    2.3581   52.2394 H       1  ZINC000535362552    0.1800
     32 H32        -2.4479    2.9122   53.5962 H       1  ZINC000535362552    0.1400
     33 H33        -4.9278    3.9622   53.9431 H       1  ZINC000535362552    0.4100
     34 H34        -6.6229    4.6114   55.7072 H       1  ZINC000535362552    0.1200
     35 H35        -7.0750    4.6976   53.9728 H       1  ZINC000535362552    0.0900
     36 H36       -11.3748    3.8581   54.8096 H       1  ZINC000535362552    0.1400
     37 H37       -12.2246    1.7419   53.9005 H       1  ZINC000535362552    0.1400
     38 H38        -8.2503    0.2008   53.7421 H       1  ZINC000535362552    0.1400
     39 H39        -5.7478    2.7627   50.8837 H       1  ZINC000535362552    0.1500
     40 H40        -4.2346    2.2393   49.0281 H       1  ZINC000535362552    0.1500
@<TRIPOS>BOND
     1     1     2    1
     2     1    28    1
     3     1    29    1
     4     1    30    1
     5     2     3    1
     6     3     4    2
     7     3     5    1
     8     5    27    1
     9     5     6    2
    10     6     7    1
    11     6    31    1
    12     7    26   ar
    13     7     8   ar
    14     8     9   ar
    15     8    32    1
    16     9    10    1
    17     9    24   ar
    18    10    11   am
    19    10    33    1
    20    11    12    2
    21    11    13    1
    22    13    14    1
    23    13    23    1
    24    13    15    1
    25    15    16    1
    26    15    34    1
    27    15    35    1
    28    16    17    1
    29    17    23   ar
    30    17    18   ar
    31    18    19   ar
    32    18    36    1
    33    19    20   ar
    34    19    37    1
    35    20    21    1
    36    20    22   ar
    37    22    23   ar
    38    22    38    1
    39    24    25   ar
    40    24    39    1
    41    25    26   ar
    42    25    40    1
    43    26    27    1
@<TRIPOS>SUBSTRUCTURE
     1 ZINC000535362552        1 TEMP              0 ****  ****    0 ROOT


##########                                Name:    ZINC001220212140
##########                DOCK_Rotatable_Bonds:                   6
##########                         Heavy_Atoms:                  28
##########                    Molecular_Weight:             379.459
##########                DOCK_Rotatable_Bonds:                   6
##########                       Formal_Charge:         -0.00999925
##########                     HBond_Acceptors:                   6
##########                        HBond_Donors:                   1
##########                         Heavy_Atoms:                  28
##########                          Grid_Score:          -26.517935
##########                     Grid_vdw_energy:          -27.458359
##########                      Grid_es_energy:            0.940423
##########           Internal_energy_repulsive:          171.906525

@<TRIPOS>MOLECULE
ZINC001220212140
 53 56 1 0 0
SMALL
USER_CHARGES


@<TRIPOS>ATOM
      1 C1         -4.9557    2.7707   50.2464 C.3     1  ZINC001220212140   -0.1700
      2 C2         -4.5521    2.0865   51.5540 C.3     1  ZINC001220212140    0.0800
      3 H3         -3.4958    2.2527   51.7650 H       1  ZINC001220212140    0.1200
      4 C4         -5.4300    2.5842   52.7266 C.3     1  ZINC001220212140   -0.1100
      5 C5         -6.5420    1.5531   52.7455 C.ar    1  ZINC001220212140   -0.1500
      6 C6         -7.7813    1.5433   53.3447 C.ar    1  ZINC001220212140   -0.0700
      7 C7         -8.6188    0.4457   53.1868 C.ar    1  ZINC001220212140    0.1400
      8 N8         -9.8819    0.4300   53.7939 N.am    1  ZINC001220212140   -0.6800
      9 C9        -10.9280    1.0265   53.1888 C.2     1  ZINC001220212140    0.7200
     10 O10       -10.7761    1.5782   52.1160 O.2     1  ZINC001220212140   -0.5700
     11 N11       -12.1426    1.0114   53.7727 N.am    1  ZINC001220212140   -0.6300
     12 C12       -13.3640    1.6201   53.2255 C.3     1  ZINC001220212140    0.0900
     13 C13       -14.5069    1.3280   54.2204 C.3     1  ZINC001220212140   -0.1100
     14 C14       -13.9862    0.0875   54.9933 C.3     1  ZINC001220212140   -0.1300
     15 H15       -14.1810   -0.8295   54.4372 H       1  ZINC001220212140    0.1200
     16 C16       -14.5897    0.0178   56.3725 C.2     1  ZINC001220212140    0.5300
     17 O17       -15.3537    0.8832   56.7445 O.2     1  ZINC001220212140   -0.5100
     18 N18       -14.2804   -1.0062   57.1924 N.am    1  ZINC001220212140   -0.5700
     19 C19       -13.3575   -2.0514   56.7431 C.3     1  ZINC001220212140    0.0700
     20 C20       -14.8407   -1.0708   58.4729 C.ar    1  ZINC001220212140    0.1400
     21 C21       -15.7193   -0.0832   58.8987 C.ar    1  ZINC001220212140   -0.1100
     22 C22       -16.2707   -0.1499   60.1632 C.ar    1  ZINC001220212140   -0.1100
     23 C23       -15.9485   -1.1984   61.0052 C.ar    1  ZINC001220212140   -0.1200
     24 C24       -15.0737   -2.1832   60.5844 C.ar    1  ZINC001220212140   -0.1100
     25 C25       -14.5240   -2.1258   59.3187 C.ar    1  ZINC001220212140   -0.1200
     26 C26       -12.4681    0.3763   55.0627 C.3     1  ZINC001220212140    0.1400
     27 C27        -8.1975   -0.6346   52.4238 C.ar    1  ZINC001220212140   -0.1100
     28 C28        -6.9538   -0.6223   51.8281 C.ar    1  ZINC001220212140   -0.1200
     29 C29        -6.1092    0.4734   51.9861 C.ar    1  ZINC001220212140    0.0900
     30 O30        -4.8467    0.6802   51.5050 O.3     1  ZINC001220212140   -0.3000
     31 H31        -6.0108    2.5821   50.0482 H       1  ZINC001220212140    0.0600
     32 H32        -4.7883    3.8445   50.3314 H       1  ZINC001220212140    0.0800
     33 H33        -4.3555    2.3732   49.4280 H       1  ZINC001220212140    0.0700
     34 H34        -4.8722    2.5727   53.6629 H       1  ZINC001220212140    0.0900
     35 H35        -5.8251    3.5793   52.5224 H       1  ZINC001220212140    0.0900
     36 H36        -8.1024    2.3876   53.9367 H       1  ZINC001220212140    0.1400
     37 H37       -10.0032   -0.0102   54.6498 H       1  ZINC001220212140    0.4100
     38 H38       -13.2278    2.6968   53.1231 H       1  ZINC001220212140    0.0700
     39 H39       -13.5952    1.1798   52.2556 H       1  ZINC001220212140    0.0700
     40 H40       -14.6541    2.1700   54.8968 H       1  ZINC001220212140    0.1000
     41 H41       -15.4294    1.0925   53.6898 H       1  ZINC001220212140    0.0900
     42 H42       -12.3370   -1.7723   57.0052 H       1  ZINC001220212140    0.0700
     43 H43       -13.6122   -2.9939   57.2277 H       1  ZINC001220212140    0.0800
     44 H44       -13.4365   -2.1657   55.6620 H       1  ZINC001220212140    0.0800
     45 H45       -15.9708    0.7364   58.2418 H       1  ZINC001220212140    0.1200
     46 H46       -16.9541    0.6179   60.4949 H       1  ZINC001220212140    0.1300
     47 H47       -16.3807   -1.2481   61.9937 H       1  ZINC001220212140    0.1300
     48 H48       -14.8235   -3.0004   61.2446 H       1  ZINC001220212140    0.1300
     49 H49       -13.8408   -2.8952   58.9906 H       1  ZINC001220212140    0.1200
     50 H50       -11.9104   -0.5523   55.1837 H       1  ZINC001220212140    0.0900
     51 H51       -12.2492    1.0607   55.8823 H       1  ZINC001220212140    0.0700
     52 H52        -8.8463   -1.4886   52.2965 H       1  ZINC001220212140    0.1300
     53 H53        -6.6332   -1.4668   51.2359 H       1  ZINC001220212140    0.1300
@<TRIPOS>BOND
     1     1     2    1
     2     1    31    1
     3     1    32    1
     4     1    33    1
     5     2     3    1
     6     2    30    1
     7     2     4    1
     8     4     5    1
     9     4    34    1
    10     4    35    1
    11     5    29   ar
    12     5     6   ar
    13     6     7   ar
    14     6    36    1
    15     7     8    1
    16     7    27   ar
    17     8     9   am
    18     8    37    1
    19     9    10    2
    20     9    11   am
    21    11    26    1
    22    11    12    1
    23    12    13    1
    24    12    38    1
    25    12    39    1
    26    13    14    1
    27    13    40    1
    28    13    41    1
    29    14    15    1
    30    14    16    1
    31    14    26    1
    32    16    17    2
    33    16    18   am
    34    18    19    1
    35    18    20    1
    36    19    42    1
    37    19    43    1
    38    19    44    1
    39    20    25   ar
    40    20    21   ar
    41    21    22   ar
    42    21    45    1
    43    22    23   ar
    44    22    46    1
    45    23    24   ar
    46    23    47    1
    47    24    25   ar
    48    24    48    1
    49    25    49    1
    50    26    50    1
    51    26    51    1
    52    27    28   ar
    53    27    52    1
    54    28    29   ar
    55    28    53    1
    56    29    30    1
@<TRIPOS>SUBSTRUCTURE
     1 ZINC001220212140        1 TEMP              0 ****  ****    0 ROOT


##########                                Name:    ZINC000493443319
##########                DOCK_Rotatable_Bonds:                   6
##########                         Heavy_Atoms:                  25
##########                    Molecular_Weight:             348.399
##########                DOCK_Rotatable_Bonds:                   6
##########                       Formal_Charge:        -3.27826e-07
##########                     HBond_Acceptors:                   7
##########                        HBond_Donors:                   0
##########                         Heavy_Atoms:                  25
##########                          Grid_Score:          -26.513889
##########                     Grid_vdw_energy:          -25.357481
##########                      Grid_es_energy:           -1.156408
##########           Internal_energy_repulsive:           53.354420

@<TRIPOS>MOLECULE
ZINC000493443319
 49 51 1 0 0
SMALL
USER_CHARGES


@<TRIPOS>ATOM
      1 C1         -7.9709    1.6950   60.6993 C.3     1  <0>        -0.1500
      2 C2         -8.0420    2.0847   59.2215 C.3     1  <0>         0.0500
      3 O3         -6.7184    2.2364   58.7048 O.3     1  <0>        -0.3200
      4 C4         -6.6030    2.5843   57.3952 C.ar    1  <0>         0.1000
      5 C5         -7.7410    2.7809   56.6271 C.ar    1  <0>        -0.1700
      6 C6         -7.6239    3.1342   55.2969 C.ar    1  <0>        -0.1100
      7 C7         -6.3682    3.2930   54.7295 C.ar    1  <0>         0.0800
      8 O8         -6.2529    3.6406   53.4199 O.3     1  <0>        -0.3000
      9 C9         -5.6439    4.9015   53.1346 C.3     1  <0>         0.1000
     10 C10        -5.9966    5.3270   51.7078 C.3     1  <0>        -0.1800
     11 C11        -6.1581    5.9513   54.1217 C.3     1  <0>        -0.1500
     12 C12        -4.1477    4.7780   53.2666 C.2     1  <0>         0.5100
     13 O13        -3.5263    5.5964   53.9108 O.2     1  <0>        -0.5200
     14 N14        -3.5004    3.7583   52.6688 N.am    1  <0>        -0.6000
     15 C15        -4.2501    2.7661   51.8882 C.3     1  <0>         0.0700
     16 C16        -3.6769    2.7115   50.4630 C.3     1  <0>         0.1300
     17 N17        -2.2128    2.6610   50.5802 N.am    1  <0>        -0.6300
     18 C18        -1.3693    1.7772   50.0444 C.2     1  <0>         0.6500
     19 O19        -1.7065    0.9515   49.2193 O.2     1  <0>        -0.5200
     20 O20        -0.1151    1.8865   50.5029 O.3     1  <0>        -0.3200
     21 C21        -0.0259    3.0268   51.4078 C.3     1  <0>         0.0500
     22 C22        -1.4390    3.6314   51.3843 C.3     1  <0>         0.0800
     23 H23        -1.4432    4.6228   50.9312 H       1  <0>         0.1100
     24 C24        -2.0394    3.6386   52.7906 C.3     1  <0>         0.1000
     25 C25        -5.2303    3.0979   55.4981 C.ar    1  <0>        -0.1800
     26 C26        -5.3475    2.7482   56.8293 C.ar    1  <0>        -0.1100
     27 H27        -8.9805    1.5793   61.0936 H       1  <0>         0.0800
     28 H28        -7.4310    0.7536   60.8013 H       1  <0>         0.0700
     29 H29        -7.4507    2.4744   61.2560 H       1  <0>         0.0700
     30 H30        -8.5623    1.3053   58.6648 H       1  <0>         0.0600
     31 H31        -8.5819    3.0261   59.1196 H       1  <0>         0.0600
     32 H32        -8.7187    2.6571   57.0689 H       1  <0>         0.1400
     33 H33        -8.5100    3.2866   54.6985 H       1  <0>         0.1400
     34 H34        -7.0631    5.5436   51.6465 H       1  <0>         0.0800
     35 H35        -5.4289    6.2193   51.4440 H       1  <0>         0.0900
     36 H36        -5.7491    4.5213   51.0167 H       1  <0>         0.0800
     37 H37        -5.9863    5.6062   55.1412 H       1  <0>         0.0800
     38 H38        -5.6286    6.8905   53.9619 H       1  <0>         0.0900
     39 H39        -7.2258    6.1050   53.9652 H       1  <0>         0.0900
     40 H40        -4.1556    1.7866   52.3569 H       1  <0>         0.0800
     41 H41        -5.3010    3.0524   51.8478 H       1  <0>         0.1300
     42 H42        -4.0387    1.8192   49.9519 H       1  <0>         0.1100
     43 H43        -3.9737    3.6025   49.9098 H       1  <0>         0.0800
     44 H44         0.2319    2.6968   52.4141 H       1  <0>         0.1100
     45 H45         0.7047    3.7485   51.0423 H       1  <0>         0.1100
     46 H46        -1.6465    4.4848   53.3543 H       1  <0>         0.1100
     47 H47        -1.7915    2.7081   53.3015 H       1  <0>         0.0800
     48 H48        -4.2525    3.2219   55.0564 H       1  <0>         0.1600
     49 H49        -4.4613    2.5963   57.4277 H       1  <0>         0.1300
@<TRIPOS>BOND
     1     1     2    1
     2     1    27    1
     3     1    28    1
     4     1    29    1
     5     2     3    1
     6     2    30    1
     7     2    31    1
     8     3     4    1
     9     4    26   ar
    10     4     5   ar
    11     5     6   ar
    12     5    32    1
    13     6     7   ar
    14     6    33    1
    15     7     8    1
    16     7    25   ar
    17     8     9    1
    18     9    10    1
    19     9    11    1
    20     9    12    1
    21    10    34    1
    22    10    35    1
    23    10    36    1
    24    11    37    1
    25    11    38    1
    26    11    39    1
    27    12    13    2
    28    12    14   am
    29    14    24    1
    30    14    15    1
    31    15    16    1
    32    15    40    1
    33    15    41    1
    34    16    17    1
    35    16    42    1
    36    16    43    1
    37    17    22    1
    38    17    18   am
    39    18    19    2
    40    18    20    1
    41    20    21    1
    42    21    22    1
    43    21    44    1
    44    21    45    1
    45    22    23    1
    46    22    24    1
    47    24    46    1
    48    24    47    1
    49    25    26   ar
    50    25    48    1
    51    26    49    1
@<TRIPOS>SUBSTRUCTURE
     1 <0>         1 TEMP              0 ****  ****    0 ROOT


##########                                Name:    ZINC000431691749
##########                DOCK_Rotatable_Bonds:                   4
##########                         Heavy_Atoms:                  24
##########                    Molecular_Weight:             328.454
##########                DOCK_Rotatable_Bonds:                   4
##########                       Formal_Charge:         -0.00999957
##########                     HBond_Acceptors:                   4
##########                        HBond_Donors:                   0
##########                         Heavy_Atoms:                  24
##########                          Grid_Score:          -26.513306
##########                     Grid_vdw_energy:          -25.420456
##########                      Grid_es_energy:           -1.092849
##########           Internal_energy_repulsive:          107.281433

@<TRIPOS>MOLECULE
ZINC000431691749
 52 54 1 0 0
SMALL
USER_CHARGES


@<TRIPOS>ATOM
      1 C1        -11.9716    3.9161   49.8118 C.3     1  ZINC000431691749   -0.1200
      2 C2        -12.4821    2.7427   50.6077 C.ar    1  ZINC000431691749   -0.0800
      3 C3        -13.7842    2.3096   50.4426 C.ar    1  ZINC000431691749   -0.1200
      4 C4        -14.2525    1.2331   51.1727 C.ar    1  ZINC000431691749   -0.1100
      5 C5        -13.4185    0.5895   52.0675 C.ar    1  ZINC000431691749   -0.1100
      6 C6        -12.1157    1.0221   52.2321 C.ar    1  ZINC000431691749   -0.0800
      7 C7        -11.2064    0.3207   53.2079 C.3     1  ZINC000431691749    0.2000
      8 H8        -11.1290   -0.7328   52.9396 H       1  ZINC000431691749    0.1100
      9 N9         -9.8770    0.9346   53.1644 N.am    1  ZINC000431691749   -0.5700
     10 C10        -9.6289    2.2252   53.4628 C.2     1  ZINC000431691749    0.5200
     11 O11       -10.4332    3.0653   53.8050 O.2     1  ZINC000431691749   -0.4400
     12 C12        -8.1349    2.4077   53.2826 C.3     1  ZINC000431691749    0.0900
     13 H13        -7.9295    3.1458   52.5073 H       1  ZINC000431691749    0.1300
     14 C14        -7.4798    2.8195   54.6026 C.3     1  ZINC000431691749   -0.1500
     15 N15        -7.6711    1.0735   52.8643 N.am    1  ZINC000431691749   -0.6000
     16 C16        -6.2937    0.6834   52.5533 C.3     1  ZINC000431691749    0.1500
     17 C17        -6.1345    0.0375   51.1668 C.3     1  ZINC000431691749   -0.1600
     18 C18        -5.9128    1.4568   50.6180 C.3     1  ZINC000431691749   -0.1400
     19 C19        -5.4296    1.8411   52.0263 C.3     1  ZINC000431691749   -0.1500
     20 C20        -8.7582    0.2820   52.8289 C.2     1  ZINC000431691749    0.7000
     21 O21        -8.7286   -0.8931   52.5196 O.2     1  ZINC000431691749   -0.5300
     22 C22       -11.7802    0.4465   54.6206 C.3     1  ZINC000431691749   -0.0700
     23 C23       -12.6482   -0.7751   54.9292 C.3     1  ZINC000431691749   -0.1400
     24 C24       -10.6344    0.5263   55.6313 C.3     1  ZINC000431691749   -0.1400
     25 C25       -12.6320    1.7140   54.7142 C.3     1  ZINC000431691749   -0.1600
     26 C26       -11.6463    2.0957   51.4990 C.ar    1  ZINC000431691749   -0.1100
     27 H27       -11.5462    3.5611   48.8733 H       1  ZINC000431691749    0.0700
     28 H28       -12.7951    4.5988   49.6024 H       1  ZINC000431691749    0.0700
     29 H29       -11.2043    4.4372   50.3844 H       1  ZINC000431691749    0.0700
     30 H30       -14.4360    2.8125   49.7434 H       1  ZINC000431691749    0.1200
     31 H31       -15.2702    0.8951   51.0442 H       1  ZINC000431691749    0.1200
     32 H32       -13.7845   -0.2510   52.6383 H       1  ZINC000431691749    0.1100
     33 H33        -7.6753    2.0586   55.3582 H       1  ZINC000431691749    0.0700
     34 H34        -6.4041    2.9204   54.4584 H       1  ZINC000431691749    0.0800
     35 H35        -7.8933    3.7729   54.9315 H       1  ZINC000431691749    0.0800
     36 H36        -5.8224    0.1173   53.3569 H       1  ZINC000431691749    0.1000
     37 H37        -5.2581   -0.6051   51.0825 H       1  ZINC000431691749    0.0900
     38 H38        -7.0447   -0.4358   50.7986 H       1  ZINC000431691749    0.0700
     39 H39        -5.1335    1.5143   49.8581 H       1  ZINC000431691749    0.0700
     40 H40        -6.8336    1.9585   50.3202 H       1  ZINC000431691749    0.0800
     41 H41        -5.7706    2.8238   52.3520 H       1  ZINC000431691749    0.1000
     42 H42        -4.3604    1.6916   52.1771 H       1  ZINC000431691749    0.0900
     43 H43       -12.0414   -1.6781   54.8625 H       1  ZINC000431691749    0.0600
     44 H44       -13.0569   -0.6856   55.9356 H       1  ZINC000431691749    0.0600
     45 H45       -13.4645   -0.8321   54.2091 H       1  ZINC000431691749    0.0600
     46 H46       -10.0160    1.3966   55.4115 H       1  ZINC000431691749    0.0500
     47 H47       -11.0431    0.6159   56.6377 H       1  ZINC000431691749    0.0600
     48 H48       -10.0275   -0.3767   55.5646 H       1  ZINC000431691749    0.0500
     49 H49       -12.9943    1.9824   53.7219 H       1  ZINC000431691749    0.0700
     50 H50       -13.4804    1.5337   55.3743 H       1  ZINC000431691749    0.0400
     51 H51       -12.0280    2.5290   55.1131 H       1  ZINC000431691749    0.1000
     52 H52       -10.6285    2.4336   51.6274 H       1  ZINC000431691749    0.1300
@<TRIPOS>BOND
     1     1     2    1
     2     1    27    1
     3     1    28    1
     4     1    29    1
     5     2    26   ar
     6     2     3   ar
     7     3     4   ar
     8     3    30    1
     9     4     5   ar
    10     4    31    1
    11     5     6   ar
    12     5    32    1
    13     6     7    1
    14     6    26   ar
    15     7     8    1
    16     7     9    1
    17     7    22    1
    18     9    20   am
    19     9    10   am
    20    10    11    2
    21    10    12    1
    22    12    13    1
    23    12    14    1
    24    12    15    1
    25    14    33    1
    26    14    34    1
    27    14    35    1
    28    15    16    1
    29    15    20   am
    30    16    19    1
    31    16    17    1
    32    16    36    1
    33    17    18    1
    34    17    37    1
    35    17    38    1
    36    18    19    1
    37    18    39    1
    38    18    40    1
    39    19    41    1
    40    19    42    1
    41    20    21    2
    42    22    23    1
    43    22    24    1
    44    22    25    1
    45    23    43    1
    46    23    44    1
    47    23    45    1
    48    24    46    1
    49    24    47    1
    50    24    48    1
    51    25    49    1
    52    25    50    1
    53    25    51    1
    54    26    52    1
@<TRIPOS>SUBSTRUCTURE
     1 ZINC000431691749        1 TEMP              0 ****  ****    0 ROOT


##########                                Name:    ZINC001211202056
##########                DOCK_Rotatable_Bonds:                   4
##########                         Heavy_Atoms:                  23
##########                    Molecular_Weight:             386.181
##########                DOCK_Rotatable_Bonds:                   4
##########                       Formal_Charge:           0.0199999
##########                     HBond_Acceptors:                  11
##########                        HBond_Donors:                   3
##########                         Heavy_Atoms:                  23
##########                          Grid_Score:          -26.433300
##########                     Grid_vdw_energy:          -24.747095
##########                      Grid_es_energy:           -1.686206
##########           Internal_energy_repulsive:            5.571504

@<TRIPOS>MOLECULE
ZINC001211202056
 31 32 1 0 0
SMALL
USER_CHARGES


@<TRIPOS>ATOM
      1 N1         -3.7817    5.0722   57.9790 N.pl3   1  ZINC001211202056   -0.8500
      2 C2         -3.2969    4.9335   56.6756 C.ar    1  ZINC001211202056    0.2900
      3 C3         -3.6997    5.8194   55.6855 C.ar    1  ZINC001211202056   -0.2000
      4 C4         -3.2188    5.6795   54.3979 C.ar    1  ZINC001211202056    0.0400
      5 C5         -2.3375    4.6586   54.0941 C.ar    1  ZINC001211202056   -0.7300
      6 S6         -1.7269    4.4845   52.4505 S.o2    1  ZINC001211202056    2.6900
      7 O7         -1.1506    5.7357   52.1018 O.2     1  ZINC001211202056   -0.9400
      8 O8         -1.0058    3.2605   52.4180 O.2     1  ZINC001211202056   -0.9300
      9 N9         -3.0380    4.2812   51.4595 N.am    1  ZINC001211202056   -1.0500
     10 C10        -3.8987    3.1969   51.6526 C.ar    1  ZINC001211202056    0.1600
     11 C11        -4.9569    3.2866   52.5524 C.ar    1  ZINC001211202056   -0.1200
     12 C12        -5.7834    2.1851   52.7092 C.ar    1  ZINC001211202056   -0.0800
     13 C13        -5.5329    1.0426   51.9736 C.ar    1  ZINC001211202056    0.0400
     14 C14        -6.4279   -0.1585   52.1394 C.3     1  ZINC001211202056    0.5300
     15 F15        -7.7376    0.2664   52.3868 F       1  ZINC001211202056   -0.1700
     16 F16        -6.3996   -0.9261   50.9701 F       1  ZINC001211202056   -0.1600
     17 F17        -5.9771   -0.9310   53.2152 F       1  ZINC001211202056   -0.1700
     18 N18        -4.5218    0.9882   51.1279 N.ar    1  ZINC001211202056   -0.4100
     19 C19        -3.7141    2.0142   50.9445 C.ar    1  ZINC001211202056    0.1600
     20 Cl20       -2.4003    1.8834   49.8172 Cl      1  ZINC001211202056    0.0000
     21 C21        -1.9336    3.7737   55.0775 C.ar    1  ZINC001211202056    0.0400
     22 C22        -2.4059    3.9114   56.3687 C.ar    1  ZINC001211202056   -0.1400
     23 Cl23       -1.8987    2.8006   57.6027 Cl      1  ZINC001211202056   -0.0500
     24 H24        -3.4964    4.4550   58.6708 H       1  ZINC001211202056    0.4100
     25 H25        -4.4003    5.7881   58.1927 H       1  ZINC001211202056    0.4100
     26 H26        -4.3886    6.6170   55.9214 H       1  ZINC001211202056    0.1400
     27 H27        -3.5319    6.3686   53.6274 H       1  ZINC001211202056    0.1500
     28 H28        -3.2087    4.9146   50.7450 H       1  ZINC001211202056    0.4400
     29 H29        -5.1295    4.1923   53.1149 H       1  ZINC001211202056    0.2000
     30 H30        -6.6138    2.2194   53.3988 H       1  ZINC001211202056    0.1700
     31 H31        -1.2451    2.9772   54.8369 H       1  ZINC001211202056    0.1500
@<TRIPOS>BOND
     1     1     2    1
     2     1    24    1
     3     1    25    1
     4     2    22   ar
     5     2     3   ar
     6     3     4   ar
     7     3    26    1
     8     4     5   ar
     9     4    27    1
    10     5     6    1
    11     5    21   ar
    12     6     7    2
    13     6     8    2
    14     6     9   am
    15     9    10    1
    16     9    28    1
    17    10    19   ar
    18    10    11   ar
    19    11    12   ar
    20    11    29    1
    21    12    13   ar
    22    12    30    1
    23    13    14    1
    24    13    18   ar
    25    14    15    1
    26    14    16    1
    27    14    17    1
    28    18    19   ar
    29    19    20    1
    30    21    22   ar
    31    21    31    1
    32    22    23    1
@<TRIPOS>SUBSTRUCTURE
     1 ZINC001211202056        1 TEMP              0 ****  ****    0 ROOT


##########                                Name:    ZINC000942661662
##########                DOCK_Rotatable_Bonds:                   6
##########                         Heavy_Atoms:                  25
##########                    Molecular_Weight:             343.426
##########                DOCK_Rotatable_Bonds:                   6
##########                       Formal_Charge:           0.0399997
##########                     HBond_Acceptors:                   6
##########                        HBond_Donors:                   1
##########                         Heavy_Atoms:                  25
##########                          Grid_Score:          -26.419529
##########                     Grid_vdw_energy:          -25.344957
##########                      Grid_es_energy:           -1.074571
##########           Internal_energy_repulsive:          195.354752

@<TRIPOS>MOLECULE
ZINC000942661662
 50 52 1 0 0
SMALL
USER_CHARGES


@<TRIPOS>ATOM
      1 C1         -6.2381    3.4905   51.8813 C.3     1  ZINC000942661662   -0.1700
      2 C2         -5.1306    2.4667   52.1384 C.3     1  ZINC000942661662    0.1000
      3 N3         -3.8471    3.1597   52.2751 N.am    1  ZINC000942661662   -0.6000
      4 C4         -3.5409    3.7900   53.4263 C.2     1  ZINC000942661662    0.6000
      5 O5         -2.4754    4.3653   53.5399 O.2     1  ZINC000942661662   -0.5200
      6 C6         -4.4973    3.7822   54.5476 C.2     1  ZINC000942661662   -0.2400
      7 C7         -4.3430    4.3738   55.7672 C.2     1  ZINC000942661662    0.0700
      8 C8         -3.1429    5.1665   56.2169 C.3     1  ZINC000942661662   -0.0900
      9 O9         -5.4372    4.1309   56.4952 O.3     1  ZINC000942661662   -0.1700
     10 C10        -6.3201    3.3951   55.8021 C.2     1  ZINC000942661662   -0.0300
     11 C11        -5.8195    3.1406   54.5835 C.2     1  ZINC000942661662   -0.1900
     12 C12        -2.8964    3.1675   51.1604 C.3     1  ZINC000942661662    0.1400
     13 H13        -2.9572    4.1029   50.6043 H       1  ZINC000942661662    0.1100
     14 C14        -3.1243    1.9495   50.2267 C.3     1  ZINC000942661662   -0.1400
     15 C15        -1.7324    1.7316   49.5968 C.3     1  ZINC000942661662    0.1000
     16 N16        -0.7453    2.3468   50.4961 N.am    1  ZINC000942661662   -0.6200
     17 C17         0.5860    2.3893   50.2899 C.2     1  ZINC000942661662    0.6100
     18 O18         1.0626    1.8905   49.2875 O.2     1  ZINC000942661662   -0.5200
     19 C19         1.4602    3.0367   51.2737 C.2     1  ZINC000942661662   -0.0600
     20 C20         1.9443    4.3260   51.2100 C.2     1  ZINC000942661662   -0.0700
     21 C21         1.6749    5.3309   50.1198 C.3     1  ZINC000942661662   -0.0900
     22 C22         2.7319    4.5259   52.3482 C.2     1  ZINC000942661662   -0.2100
     23 C23         2.7156    3.3805   53.0710 C.2     1  ZINC000942661662    0.0500
     24 C24         3.4347    3.1578   54.3766 C.3     1  ZINC000942661662   -0.0900
     25 N25         1.9420    2.4695   52.4318 N.pl3   1  ZINC000942661662   -0.5400
     26 C26        -1.4527    2.9115   51.6603 C.3     1  ZINC000942661662    0.0900
     27 H27        -7.1930    2.9749   51.7796 H       1  ZINC000942661662    0.0700
     28 H28        -6.2891    4.1881   52.7173 H       1  ZINC000942661662    0.0600
     29 H29        -6.0211    4.0379   50.9640 H       1  ZINC000942661662    0.0600
     30 H30        -5.3475    1.9194   53.0556 H       1  ZINC000942661662    0.0900
     31 H31        -5.0795    1.7690   51.3024 H       1  ZINC000942661662    0.0800
     32 H32        -3.2854    6.2169   55.9630 H       1  ZINC000942661662    0.0900
     33 H33        -3.0248    5.0662   57.2959 H       1  ZINC000942661662    0.0900
     34 H34        -2.2505    4.7897   55.7172 H       1  ZINC000942661662    0.1000
     35 H35        -7.2821    3.0649   56.1654 H       1  ZINC000942661662    0.2100
     36 H36        -6.2888    2.5735   53.7931 H       1  ZINC000942661662    0.1600
     37 H37        -3.4289    1.0747   50.8012 H       1  ZINC000942661662    0.1000
     38 H38        -3.8622    2.1844   49.4596 H       1  ZINC000942661662    0.0900
     39 H39        -1.5319    0.6645   49.5008 H       1  ZINC000942661662    0.0700
     40 H40        -1.6897    2.2085   48.6177 H       1  ZINC000942661662    0.0700
     41 H41         0.7848    5.9082   50.3695 H       1  ZINC000942661662    0.0700
     42 H42         2.5286    6.0020   50.0252 H       1  ZINC000942661662    0.0600
     43 H43         1.5165    4.8091   49.1759 H       1  ZINC000942661662    0.0800
     44 H44         3.2598    5.4324   52.6049 H       1  ZINC000942661662    0.1400
     45 H45         2.7824    3.4394   55.2032 H       1  ZINC000942661662    0.0800
     46 H46         3.7038    2.1055   54.4682 H       1  ZINC000942661662    0.0700
     47 H47         4.3379    3.7673   54.4025 H       1  ZINC000942661662    0.0900
     48 H48         1.7623    1.5664   52.7367 H       1  ZINC000942661662    0.4100
     49 H49        -0.9862    3.8464   51.9709 H       1  ZINC000942661662    0.0800
     50 H50        -1.4581    2.1975   52.4838 H       1  ZINC000942661662    0.1000
@<TRIPOS>BOND
     1     1     2    1
     2     1    27    1
     3     1    28    1
     4     1    29    1
     5     2     3    1
     6     2    30    1
     7     2    31    1
     8     3     4   am
     9     3    12    1
    10     4     5    2
    11     4     6    1
    12     6    11    1
    13     6     7    2
    14     7     8    1
    15     7     9    1
    16     8    32    1
    17     8    33    1
    18     8    34    1
    19     9    10    1
    20    10    11    2
    21    10    35    1
    22    11    36    1
    23    12    13    1
    24    12    26    1
    25    12    14    1
    26    14    15    1
    27    14    37    1
    28    14    38    1
    29    15    16    1
    30    15    39    1
    31    15    40    1
    32    16    17   am
    33    16    26    1
    34    17    18    2
    35    17    19    1
    36    19    25    1
    37    19    20    2
    38    20    21    1
    39    20    22    1
    40    21    41    1
    41    21    42    1
    42    21    43    1
    43    22    23    2
    44    22    44    1
    45    23    24    1
    46    23    25    1
    47    24    45    1
    48    24    46    1
    49    24    47    1
    50    25    48    1
    51    26    49    1
    52    26    50    1
@<TRIPOS>SUBSTRUCTURE
     1 ZINC000942661662        1 TEMP              0 ****  ****    0 ROOT


##########                                Name:    ZINC000002873519
##########                DOCK_Rotatable_Bonds:                   5
##########                         Heavy_Atoms:                  25
##########                    Molecular_Weight:             375.207
##########                DOCK_Rotatable_Bonds:                   5
##########                       Formal_Charge:               -0.02
##########                     HBond_Acceptors:                   6
##########                        HBond_Donors:                   0
##########                         Heavy_Atoms:                  25
##########                          Grid_Score:          -26.389524
##########                     Grid_vdw_energy:          -25.760117
##########                      Grid_es_energy:           -0.629409
##########           Internal_energy_repulsive:           12.052817

@<TRIPOS>MOLECULE
ZINC000002873519
 37 39 1 0 0
SMALL
USER_CHARGES


@<TRIPOS>ATOM
      1 C1         -8.4715    5.1277   54.3667 C.3     1  ZINC000002873519   -0.1500
      2 C2         -7.7984    5.4754   53.0639 C.2     1  ZINC000002873519    0.4500
      3 O3         -7.3157    6.5719   52.9071 O.2     1  ZINC000002873519   -0.4800
      4 O4         -7.7350    4.5665   52.0773 O.3     1  ZINC000002873519   -0.2900
      5 C5         -8.3657    3.3833   52.2880 C.ar    1  ZINC000002873519    0.1200
      6 C6         -9.7021    3.2383   51.9549 C.ar    1  ZINC000002873519   -0.1100
      7 C7        -10.3441    2.0332   52.1690 C.ar    1  ZINC000002873519   -0.0800
      8 C8         -9.6595    0.9593   52.7180 C.ar    1  ZINC000002873519   -0.0400
      9 Cl9       -10.4820   -0.5470   52.9793 Cl      1  ZINC000002873519   -0.0500
     10 C10        -8.3292    1.0820   53.0568 C.ar    1  ZINC000002873519   -0.0800
     11 C11        -7.6636    2.2965   52.8404 C.ar    1  ZINC000002873519   -0.0700
     12 C12        -6.2510    2.4363   53.1965 C.2     1  ZINC000002873519    0.0400
     13 C13        -5.2767    2.2846   52.2293 C.2     1  ZINC000002873519   -0.1900
     14 C14        -3.8161    2.3809   52.3949 C.2     1  ZINC000002873519   -0.2000
     15 C15        -3.2776    2.1602   51.1771 C.2     1  ZINC000002873519    0.1200
     16 C16        -1.8287    2.1656   50.8934 C.ar    1  ZINC000002873519   -0.0400
     17 C17        -0.9164    2.4635   51.9083 C.ar    1  ZINC000002873519   -0.0800
     18 C18         0.4356    2.4669   51.6367 C.ar    1  ZINC000002873519   -0.1100
     19 C19         0.8895    2.1763   50.3609 C.ar    1  ZINC000002873519   -0.0200
     20 Cl20        2.5931    2.1827   50.0273 Cl      1  ZINC000002873519   -0.0600
     21 C21        -0.0099    1.8801   49.3503 C.ar    1  ZINC000002873519   -0.1100
     22 C22        -1.3642    1.8672   49.6103 C.ar    1  ZINC000002873519   -0.0800
     23 O23        -4.2329    1.9336   50.2533 O.3     1  ZINC000002873519   -0.2600
     24 C24        -5.4622    1.9828   50.7971 C.2     1  ZINC000002873519    0.5200
     25 O25        -6.5204    1.8191   50.2192 O.2     1  ZINC000002873519   -0.4200
     26 H26        -9.5292    5.3848   54.3090 H       1  ZINC000002873519    0.1100
     27 H27        -8.3670    4.0594   54.5557 H       1  ZINC000002873519    0.1000
     28 H28        -8.0051    5.6874   55.1773 H       1  ZINC000002873519    0.1100
     29 H29       -10.2439    4.0689   51.5271 H       1  ZINC000002873519    0.1500
     30 H30       -11.3865    1.9272   51.9072 H       1  ZINC000002873519    0.1500
     31 H31        -7.7999    0.2434   53.4845 H       1  ZINC000002873519    0.1500
     32 H32        -5.9703    2.6581   54.2155 H       1  ZINC000002873519    0.1500
     33 H33        -3.2815    2.5881   53.3101 H       1  ZINC000002873519    0.1700
     34 H34        -1.2692    2.6910   52.9034 H       1  ZINC000002873519    0.1400
     35 H35         1.1421    2.6971   52.4206 H       1  ZINC000002873519    0.1400
     36 H36         0.3503    1.6546   48.3574 H       1  ZINC000002873519    0.1400
     37 H37        -2.0646    1.6361   48.8214 H       1  ZINC000002873519    0.1400
@<TRIPOS>BOND
     1     1     2    1
     2     1    26    1
     3     1    27    1
     4     1    28    1
     5     2     3    2
     6     2     4    1
     7     4     5    1
     8     5    11   ar
     9     5     6   ar
    10     6     7   ar
    11     6    29    1
    12     7     8   ar
    13     7    30    1
    14     8     9    1
    15     8    10   ar
    16    10    11   ar
    17    10    31    1
    18    11    12    1
    19    12    13    2
    20    12    32    1
    21    13    24    1
    22    13    14    1
    23    14    15    2
    24    14    33    1
    25    15    16    1
    26    15    23    1
    27    16    22   ar
    28    16    17   ar
    29    17    18   ar
    30    17    34    1
    31    18    19   ar
    32    18    35    1
    33    19    20    1
    34    19    21   ar
    35    21    22   ar
    36    21    36    1
    37    22    37    1
    38    23    24    1
    39    24    25    2
@<TRIPOS>SUBSTRUCTURE
     1 ZINC000002873519        1 TEMP              0 ****  ****    0 ROOT


##########                                Name:    ZINC000326056918
##########                DOCK_Rotatable_Bonds:                   6
##########                         Heavy_Atoms:                  24
##########                    Molecular_Weight:             408.326
##########                DOCK_Rotatable_Bonds:                   6
##########                       Formal_Charge:         -0.00999978
##########                     HBond_Acceptors:                   9
##########                        HBond_Donors:                   0
##########                         Heavy_Atoms:                  24
##########                          Grid_Score:          -26.374004
##########                     Grid_vdw_energy:          -25.667694
##########                      Grid_es_energy:           -0.706309
##########           Internal_energy_repulsive:           49.072720

@<TRIPOS>MOLECULE
ZINC000326056918
 39 40 1 0 0
SMALL
USER_CHARGES


@<TRIPOS>ATOM
      1 C1         -9.4174    4.8085   50.7971 C.3     1  ZINC000326056918    0.0400
      2 O2         -9.1031    5.0596   52.1922 O.3     1  ZINC000326056918   -0.3500
      3 C3         -9.6549    4.2314   53.1029 C.2     1  ZINC000326056918    0.5000
      4 O4         -9.4178    4.3838   54.2861 O.2     1  ZINC000326056918   -0.4300
      5 C5        -10.5390    3.1491   52.6671 C.2     1  ZINC000326056918   -0.1600
      6 C6        -10.3103    1.8139   52.8538 C.2     1  ZINC000326056918   -0.6200
      7 S7         -8.8816    1.1803   53.6676 S.o2    1  ZINC000326056918    2.6900
      8 O8         -9.1468    1.2569   55.0616 O.2     1  ZINC000326056918   -0.9100
      9 O9         -8.5471   -0.0318   53.0056 O.2     1  ZINC000326056918   -0.9400
     10 N10        -7.6396    2.2342   53.3693 N.am    1  ZINC000326056918   -0.9900
     11 C11        -6.9629    2.9030   54.4832 C.3     1  ZINC000326056918    0.0900
     12 C12        -7.2177    2.4979   51.9913 C.3     1  ZINC000326056918    0.1500
     13 C13        -5.7177    2.3890   51.8958 C.ar    1  ZINC000326056918   -0.0900
     14 C14        -4.9261    3.4863   52.1772 C.ar    1  ZINC000326056918   -0.0800
     15 C15        -3.5500    3.3874   52.0894 C.ar    1  ZINC000326056918   -0.1100
     16 C16        -2.9645    2.1897   51.7201 C.ar    1  ZINC000326056918   -0.0200
     17 Cl17       -1.2365    2.0655   51.6104 Cl      1  ZINC000326056918   -0.0600
     18 C18        -3.7565    1.0907   51.4388 C.ar    1  ZINC000326056918   -0.1100
     19 C19        -5.1329    1.1888   51.5319 C.ar    1  ZINC000326056918   -0.0300
     20 Cl20       -6.1275   -0.1898   51.1795 Cl      1  ZINC000326056918   -0.0100
     21 C21       -11.3059    1.0155   52.3443 C.2     1  ZINC000326056918   -0.0400
     22 C22       -11.2636   -0.4880   52.4371 C.3     1  ZINC000326056918   -0.1100
     23 C23       -12.3163    1.6709   51.7599 C.2     1  ZINC000326056918   -0.2600
     24 S24       -12.0691    3.3577   51.8262 S.3     1  ZINC000326056918    0.3100
     25 H25        -8.9109    5.5443   50.1723 H       1  ZINC000326056918    0.1100
     26 H26        -9.0828    3.8078   50.5236 H       1  ZINC000326056918    0.0700
     27 H27       -10.4945    4.8849   50.6477 H       1  ZINC000326056918    0.0700
     28 H28        -6.1803    2.2536   54.8755 H       1  ZINC000326056918    0.0600
     29 H29        -6.5197    3.8349   54.1324 H       1  ZINC000326056918    0.0700
     30 H30        -7.6852    3.1181   55.2708 H       1  ZINC000326056918    0.0900
     31 H31        -7.6780    1.7688   51.3246 H       1  ZINC000326056918    0.1100
     32 H32        -7.5283    3.5018   51.7020 H       1  ZINC000326056918    0.0900
     33 H33        -5.3828    4.4217   52.4655 H       1  ZINC000326056918    0.1400
     34 H34        -2.9320    4.2455   52.3087 H       1  ZINC000326056918    0.1400
     35 H35        -3.2998    0.1553   51.1504 H       1  ZINC000326056918    0.1500
     36 H36       -11.6399   -0.8027   53.4105 H       1  ZINC000326056918    0.0900
     37 H37       -11.8845   -0.9181   51.6511 H       1  ZINC000326056918    0.0700
     38 H38       -10.2359   -0.8307   52.3166 H       1  ZINC000326056918    0.0900
     39 H39       -13.1752    1.1953   51.3100 H       1  ZINC000326056918    0.1800
@<TRIPOS>BOND
     1     1     2    1
     2     1    25    1
     3     1    26    1
     4     1    27    1
     5     2     3    1
     6     3     4    2
     7     3     5    1
     8     5    24    1
     9     5     6    2
    10     6     7    1
    11     6    21    1
    12     7     8    2
    13     7     9    2
    14     7    10   am
    15    10    11    1
    16    10    12    1
    17    11    28    1
    18    11    29    1
    19    11    30    1
    20    12    13    1
    21    12    31    1
    22    12    32    1
    23    13    19   ar
    24    13    14   ar
    25    14    15   ar
    26    14    33    1
    27    15    16   ar
    28    15    34    1
    29    16    17    1
    30    16    18   ar
    31    18    19   ar
    32    18    35    1
    33    19    20    1
    34    21    22    1
    35    21    23    2
    36    22    36    1
    37    22    37    1
    38    22    38    1
    39    23    24    1
    40    23    39    1
@<TRIPOS>SUBSTRUCTURE
     1 ZINC000326056918        1 TEMP              0 ****  ****    0 ROOT


##########                                Name:    ZINC000463474628
##########                DOCK_Rotatable_Bonds:                   5
##########                         Heavy_Atoms:                  25
##########                    Molecular_Weight:              407.35
##########                DOCK_Rotatable_Bonds:                   5
##########                       Formal_Charge:           0.0200004
##########                     HBond_Acceptors:                   4
##########                        HBond_Donors:                   0
##########                         Heavy_Atoms:                  25
##########                          Grid_Score:          -26.366045
##########                     Grid_vdw_energy:          -26.195120
##########                      Grid_es_energy:           -0.170925
##########           Internal_energy_repulsive:           26.758404

@<TRIPOS>MOLECULE
ZINC000463474628
 52 54 1 0 0
SMALL
USER_CHARGES


@<TRIPOS>ATOM
      1 C1        -14.8880   -2.1011   60.2785 C.3     1  ZINC000463474628   -0.1400
      2 C2        -15.9303   -1.1864   59.6320 C.3     1  ZINC000463474628   -0.1300
      3 C3        -16.0137   -1.4870   58.1342 C.3     1  ZINC000463474628    0.1400
      4 H4        -16.7233   -0.8095   57.6593 H       1  ZINC000463474628    0.0800
      5 C5        -16.4572   -2.9489   57.9161 C.3     1  ZINC000463474628   -0.1300
      6 C6        -15.6042   -3.3929   56.6986 C.3     1  ZINC000463474628   -0.1300
      7 C7        -14.2771   -2.6366   56.9562 C.3     1  ZINC000463474628    0.0900
      8 N8        -14.6873   -1.3335   57.5188 N.am    1  ZINC000463474628   -0.6100
      9 C9        -13.9645   -0.1968   57.4758 C.2     1  ZINC000463474628    0.5300
     10 O10       -14.4021    0.8193   57.9727 O.2     1  ZINC000463474628   -0.5100
     11 C11       -12.6124   -0.1884   56.8102 C.3     1  ZINC000463474628   -0.1200
     12 H12       -12.3454   -1.2034   56.5160 H       1  ZINC000463474628    0.1000
     13 C13       -11.5657    0.3525   57.7868 C.3     1  ZINC000463474628   -0.1000
     14 C14       -10.1869    0.3308   57.1231 C.3     1  ZINC000463474628   -0.1300
     15 C15       -10.2059    1.2339   55.8858 C.3     1  ZINC000463474628    0.0900
     16 N16       -11.3050    0.8100   55.0078 N.am    1  ZINC000463474628   -0.6000
     17 C17       -11.0756    0.5193   53.7119 C.2     1  ZINC000463474628    0.5700
     18 O18       -11.9935    0.1695   52.9958 O.2     1  ZINC000463474628   -0.5200
     19 C19        -9.7081    0.6257   53.1616 C.ar    1  ZINC000463474628   -0.1200
     20 C20        -8.8709   -0.4912   53.1440 C.ar    1  ZINC000463474628   -0.0800
     21 C21        -7.5957   -0.3856   52.6292 C.ar    1  ZINC000463474628   -0.1000
     22 C22        -7.1454    0.8250   52.1306 C.ar    1  ZINC000463474628   -0.0700
     23 Br23       -5.3959    0.9610   51.4260 Br      1  ZINC000463474628   -0.0400
     24 C24        -7.9713    1.9367   52.1453 C.ar    1  ZINC000463474628   -0.0900
     25 C25        -9.2502    1.8423   52.6520 C.ar    1  ZINC000463474628   -0.0300
     26 C26       -10.1475    3.0529   52.6674 C.3     1  ZINC000463474628   -0.1300
     27 C27       -12.6592    0.7082   55.5689 C.3     1  ZINC000463474628    0.1200
     28 H28       -15.3413   -3.0664   60.5035 H       1  ZINC000463474628    0.0700
     29 H29       -14.0533   -2.2428   59.5919 H       1  ZINC000463474628    0.0600
     30 H30       -14.5268   -1.6455   61.2005 H       1  ZINC000463474628    0.0300
     31 H31       -16.9027   -1.3616   60.0925 H       1  ZINC000463474628    0.0600
     32 H32       -15.6412   -0.1458   59.7783 H       1  ZINC000463474628    0.0700
     33 H33       -16.2262   -3.5566   58.7910 H       1  ZINC000463474628    0.0800
     34 H34       -17.5204   -2.9983   57.6808 H       1  ZINC000463474628    0.0800
     35 H35       -15.4467   -4.4715   56.7043 H       1  ZINC000463474628    0.0900
     36 H36       -16.0618   -3.0716   55.7629 H       1  ZINC000463474628    0.0800
     37 H37       -13.6617   -3.1829   57.6708 H       1  ZINC000463474628    0.0700
     38 H38       -13.7358   -2.4911   56.0213 H       1  ZINC000463474628    0.0800
     39 H39       -11.8203    1.3760   58.0619 H       1  ZINC000463474628    0.0800
     40 H40       -11.5478   -0.2699   58.6814 H       1  ZINC000463474628    0.0700
     41 H41        -9.4383    0.6941   57.8272 H       1  ZINC000463474628    0.0800
     42 H42        -9.9424   -0.6889   56.8255 H       1  ZINC000463474628    0.0700
     43 H43       -10.3605    2.2687   56.1911 H       1  ZINC000463474628    0.0800
     44 H44        -9.2585    1.1452   55.3541 H       1  ZINC000463474628    0.1000
     45 H45        -9.2210   -1.4360   53.5330 H       1  ZINC000463474628    0.1400
     46 H46        -6.9470   -1.2489   52.6153 H       1  ZINC000463474628    0.1400
     47 H47        -7.6143    2.8785   51.7553 H       1  ZINC000463474628    0.1400
     48 H48       -10.7828    3.0456   51.7817 H       1  ZINC000463474628    0.0700
     49 H49       -10.7705    3.0322   53.5616 H       1  ZINC000463474628    0.0900
     50 H50        -9.5383    3.9568   52.6699 H       1  ZINC000463474628    0.0700
     51 H51       -13.3300    0.2732   54.8280 H       1  ZINC000463474628    0.1000
     52 H52       -13.0143    1.7001   55.8486 H       1  ZINC000463474628    0.0800
@<TRIPOS>BOND
     1     1     2    1
     2     1    28    1
     3     1    29    1
     4     1    30    1
     5     2     3    1
     6     2    31    1
     7     2    32    1
     8     3     4    1
     9     3     8    1
    10     3     5    1
    11     5     6    1
    12     5    33    1
    13     5    34    1
    14     6     7    1
    15     6    35    1
    16     6    36    1
    17     7     8    1
    18     7    37    1
    19     7    38    1
    20     8     9   am
    21     9    10    2
    22     9    11    1
    23    11    12    1
    24    11    27    1
    25    11    13    1
    26    13    14    1
    27    13    39    1
    28    13    40    1
    29    14    15    1
    30    14    41    1
    31    14    42    1
    32    15    16    1
    33    15    43    1
    34    15    44    1
    35    16    17   am
    36    16    27    1
    37    17    18    2
    38    17    19    1
    39    19    25   ar
    40    19    20   ar
    41    20    21   ar
    42    20    45    1
    43    21    22   ar
    44    21    46    1
    45    22    23    1
    46    22    24   ar
    47    24    25   ar
    48    24    47    1
    49    25    26    1
    50    26    48    1
    51    26    49    1
    52    26    50    1
    53    27    51    1
    54    27    52    1
@<TRIPOS>SUBSTRUCTURE
     1 ZINC000463474628        1 TEMP              0 ****  ****    0 ROOT


##########                                Name:    ZINC001291841503
##########                DOCK_Rotatable_Bonds:                   7
##########                         Heavy_Atoms:                  28
##########                    Molecular_Weight:             397.544
##########                DOCK_Rotatable_Bonds:                   7
##########                       Formal_Charge:         -0.00999964
##########                     HBond_Acceptors:                   7
##########                        HBond_Donors:                   0
##########                         Heavy_Atoms:                  28
##########                          Grid_Score:          -26.337479
##########                     Grid_vdw_energy:          -26.067818
##########                      Grid_es_energy:           -0.269661
##########           Internal_energy_repulsive:           55.866867

@<TRIPOS>MOLECULE
ZINC001291841503
 55 58 1 0 0
SMALL
USER_CHARGES


@<TRIPOS>ATOM
      1 C1        -11.2022   -1.0789   57.0470 C.3     1  ZINC001291841503   -0.1500
      2 C2        -11.0740   -1.2814   55.5358 C.3     1  ZINC001291841503   -0.1100
      3 C3        -10.8952    0.0758   54.8527 C.3     1  ZINC001291841503    0.0500
      4 H4        -10.7228    0.8428   55.6079 H       1  ZINC001291841503    0.0900
      5 C5         -9.7141    0.0162   53.9186 C.2     1  ZINC001291841503    0.2000
      6 N6         -9.5452   -0.8276   52.9403 N.2     1  ZINC001291841503   -0.2700
      7 N7         -8.4285   -0.5970   52.3472 N.2     1  ZINC001291841503   -0.3100
      8 C8         -7.8202    0.4148   52.9200 C.2     1  ZINC001291841503    0.3600
      9 N9         -6.5954    0.9523   52.5571 N.3     1  ZINC001291841503   -0.4500
     10 C10        -5.5969   -0.1052   52.3505 C.3     1  ZINC001291841503    0.0200
     11 C11        -6.7242    1.7957   51.3613 C.3     1  ZINC001291841503    0.0700
     12 H12        -7.2020    1.2459   50.5505 H       1  ZINC001291841503    0.0800
     13 C13        -7.5086    3.0966   51.6844 C.3     1  ZINC001291841503   -0.1400
     14 C14        -6.9185    4.0656   50.6292 C.3     1  ZINC001291841503    0.0500
     15 O15        -5.5320    3.7056   50.5231 O.3     1  ZINC001291841503   -0.3800
     16 C16        -5.3476    2.3383   50.9208 C.3     1  ZINC001291841503    0.0600
     17 N17        -8.6240    0.8415   53.9367 N.pl3   1  ZINC001291841503   -0.4700
     18 C18        -8.3677    1.9480   54.8620 C.3     1  ZINC001291841503    0.1900
     19 C19        -9.2149    3.1328   54.4754 C.2     1  ZINC001291841503   -0.2700
     20 C20        -8.8991    4.4184   54.6583 C.2     1  ZINC001291841503    0.0800
     21 N21        -9.8099    5.2707   54.2334 N.2     1  ZINC001291841503   -0.4800
     22 C22       -10.8764    4.7756   53.7022 C.2     1  ZINC001291841503    0.0500
     23 C23       -12.0258    5.5856   53.1600 C.3     1  ZINC001291841503   -0.0800
     24 S24       -10.7936    3.0679   53.6957 S.3     1  ZINC001291841503    0.1800
     25 C25       -12.1382    0.4120   54.0700 C.ar    1  ZINC001291841503   -0.0900
     26 C26       -13.3851    0.1763   54.6183 C.ar    1  ZINC001291841503   -0.0900
     27 C27       -14.5254    0.4847   53.9004 C.ar    1  ZINC001291841503   -0.1200
     28 C28       -14.4189    1.0293   52.6344 C.ar    1  ZINC001291841503   -0.1200
     29 C29       -13.1721    1.2659   52.0864 C.ar    1  ZINC001291841503   -0.1200
     30 C30       -12.0317    0.9615   52.8061 C.ar    1  ZINC001291841503   -0.1100
     31 H31       -10.3012   -0.5970   57.4266 H       1  ZINC001291841503    0.0500
     32 H32       -12.0669   -0.4496   57.2572 H       1  ZINC001291841503    0.0500
     33 H33       -11.3297   -2.0459   57.5337 H       1  ZINC001291841503    0.0600
     34 H34       -10.2093   -1.9107   55.3257 H       1  ZINC001291841503    0.0800
     35 H35       -11.9750   -1.7634   55.1562 H       1  ZINC001291841503    0.0800
     36 H36        -5.8878   -0.7179   51.4971 H       1  ZINC001291841503    0.0500
     37 H37        -4.6237    0.3466   52.1584 H       1  ZINC001291841503    0.0900
     38 H38        -5.5382   -0.7290   53.2424 H       1  ZINC001291841503    0.0700
     39 H39        -8.5792    2.9573   51.5346 H       1  ZINC001291841503    0.0900
     40 H40        -7.2972    3.4418   52.6964 H       1  ZINC001291841503    0.0800
     41 H41        -7.4188    3.9308   49.6701 H       1  ZINC001291841503    0.0700
     42 H42        -7.0168    5.0976   50.9662 H       1  ZINC001291841503    0.0900
     43 H43        -4.6485    2.2870   51.7556 H       1  ZINC001291841503    0.0800
     44 H44        -4.9660    1.7571   50.0813 H       1  ZINC001291841503    0.0700
     45 H45        -8.6176    1.6383   55.8768 H       1  ZINC001291841503    0.1100
     46 H46        -7.3142    2.2240   54.8154 H       1  ZINC001291841503    0.1100
     47 H47        -7.9732    4.7330   55.1168 H       1  ZINC001291841503    0.1700
     48 H48       -11.8524    5.8020   52.1058 H       1  ZINC001291841503    0.0900
     49 H49       -12.9514    5.0201   53.2673 H       1  ZINC001291841503    0.0800
     50 H50       -12.1050    6.5207   53.7145 H       1  ZINC001291841503    0.0900
     51 H51       -13.4683   -0.2492   55.6075 H       1  ZINC001291841503    0.1300
     52 H52       -15.4996    0.2998   54.3286 H       1  ZINC001291841503    0.1200
     53 H53       -15.3098    1.2696   52.0732 H       1  ZINC001291841503    0.1200
     54 H54       -13.0889    1.6912   51.0972 H       1  ZINC001291841503    0.1200
     55 H55       -11.0576    1.1464   52.3780 H       1  ZINC001291841503    0.1200
@<TRIPOS>BOND
     1     1     2    1
     2     1    31    1
     3     1    32    1
     4     1    33    1
     5     2     3    1
     6     2    34    1
     7     2    35    1
     8     3     4    1
     9     3     5    1
    10     3    25    1
    11     5    17    1
    12     5     6    2
    13     6     7    1
    14     7     8    2
    15     8     9    1
    16     8    17    1
    17     9    10    1
    18     9    11    1
    19    10    36    1
    20    10    37    1
    21    10    38    1
    22    11    12    1
    23    11    16    1
    24    11    13    1
    25    13    14    1
    26    13    39    1
    27    13    40    1
    28    14    15    1
    29    14    41    1
    30    14    42    1
    31    15    16    1
    32    16    43    1
    33    16    44    1
    34    17    18    1
    35    18    19    1
    36    18    45    1
    37    18    46    1
    38    19    24    1
    39    19    20    2
    40    20    21    1
    41    20    47    1
    42    21    22    2
    43    22    23    1
    44    22    24    1
    45    23    48    1
    46    23    49    1
    47    23    50    1
    48    25    30   ar
    49    25    26   ar
    50    26    27   ar
    51    26    51    1
    52    27    28   ar
    53    27    52    1
    54    28    29   ar
    55    28    53    1
    56    29    30   ar
    57    29    54    1
    58    30    55    1
@<TRIPOS>SUBSTRUCTURE
     1 ZINC001291841503        1 TEMP              0 ****  ****    0 ROOT


##########                                Name:    ZINC000966038509
##########                DOCK_Rotatable_Bonds:                   5
##########                         Heavy_Atoms:                  25
##########                    Molecular_Weight:             346.445
##########                DOCK_Rotatable_Bonds:                   5
##########                       Formal_Charge:           0.0299998
##########                     HBond_Acceptors:                   5
##########                        HBond_Donors:                   1
##########                         Heavy_Atoms:                  25
##########                          Grid_Score:          -26.335434
##########                     Grid_vdw_energy:          -26.183392
##########                      Grid_es_energy:           -0.152043
##########           Internal_energy_repulsive:           17.901014

@<TRIPOS>MOLECULE
ZINC000966038509
 52 54 1 0 0
SMALL
USER_CHARGES


@<TRIPOS>ATOM
      1 C1        -11.4276    1.4749   57.7842 C.3     1  ZINC000966038509   -0.1200
      2 C2        -10.0105    1.7400   58.2228 C.ar    1  ZINC000966038509   -0.0100
      3 C3         -9.6587    1.5933   59.5474 C.ar    1  ZINC000966038509   -0.1600
      4 C4         -8.3553    1.8375   59.9523 C.ar    1  ZINC000966038509    0.1300
      5 F5         -8.0159    1.6925   61.2520 F       1  ZINC000966038509   -0.1300
      6 C6         -7.3988    2.2293   59.0282 C.ar    1  ZINC000966038509   -0.1600
      7 C7         -7.7398    2.3791   57.7011 C.ar    1  ZINC000966038509   -0.0100
      8 C8         -6.6992    2.8057   56.6979 C.3     1  ZINC000966038509   -0.1200
      9 C9         -9.0499    2.1294   57.2869 C.ar    1  ZINC000966038509   -0.1500
     10 C10        -9.4210    2.2883   55.8660 C.2     1  ZINC000966038509    0.5700
     11 O11        -9.6976    3.3887   55.4293 O.2     1  ZINC000966038509   -0.5200
     12 N12        -9.4532    1.2134   55.0535 N.am    1  ZINC000966038509   -0.7100
     13 C13        -9.8196    1.3713   53.6440 C.3     1  ZINC000966038509    0.1300
     14 H14       -10.6443    2.0754   53.5333 H       1  ZINC000966038509    0.1200
     15 C15        -8.5979    1.8097   52.7984 C.3     1  ZINC000966038509    0.0900
     16 N16        -7.8519    0.5648   52.5393 N.am    1  ZINC000966038509   -0.6200
     17 C17        -6.5363    0.4814   52.2588 C.2     1  ZINC000966038509    0.5400
     18 O18        -6.0255   -0.6010   52.0628 O.2     1  ZINC000966038509   -0.5300
     19 C19        -5.7001    1.7331   52.1886 C.3     1  ZINC000966038509   -0.1100
     20 C20        -4.2936    1.4145   51.6235 C.3     1  ZINC000966038509   -0.1100
     21 C21        -3.8323    2.7828   51.0632 C.3     1  ZINC000966038509   -0.1200
     22 C22        -5.1123    3.3942   50.4568 C.3     1  ZINC000966038509   -0.1200
     23 C23        -6.2999    2.7268   51.1724 C.3     1  ZINC000966038509   -0.1100
     24 C24        -8.7807   -0.5706   52.6383 C.3     1  ZINC000966038509    0.1000
     25 C25       -10.1678    0.0018   53.0031 C.3     1  ZINC000966038509   -0.1100
     26 H26       -10.7762    0.1377   52.1089 H       1  ZINC000966038509    0.1000
     27 C27       -10.8807   -0.9056   54.0077 C.3     1  ZINC000966038509   -0.1400
     28 H28       -11.5329    0.4249   57.5109 H       1  ZINC000966038509    0.0800
     29 H29       -12.1105    1.7079   58.6013 H       1  ZINC000966038509    0.0800
     30 H30       -11.6645    2.1000   56.9233 H       1  ZINC000966038509    0.0700
     31 H31       -10.3998    1.2879   60.2713 H       1  ZINC000966038509    0.1400
     32 H32        -6.3849    2.4179   59.3488 H       1  ZINC000966038509    0.1400
     33 H33        -6.2107    1.9237   56.2839 H       1  ZINC000966038509    0.0800
     34 H34        -7.1772    3.3669   55.8950 H       1  ZINC000966038509    0.0700
     35 H35        -5.9572    3.4350   57.1893 H       1  ZINC000966038509    0.0800
     36 H36        -9.2338    0.3353   55.4022 H       1  ZINC000966038509    0.4000
     37 H37        -8.9267    2.2573   51.8605 H       1  ZINC000966038509    0.0800
     38 H38        -7.9809    2.5119   53.3590 H       1  ZINC000966038509    0.0800
     39 H39        -5.6223    2.1945   53.1731 H       1  ZINC000966038509    0.0900
     40 H40        -3.6261    1.0768   52.4163 H       1  ZINC000966038509    0.0700
     41 H41        -4.3561    0.6723   50.8276 H       1  ZINC000966038509    0.0700
     42 H42        -3.4508    3.4145   51.8653 H       1  ZINC000966038509    0.0700
     43 H43        -3.0741    2.6435   50.2926 H       1  ZINC000966038509    0.0700
     44 H44        -5.1297    4.4704   50.6289 H       1  ZINC000966038509    0.0700
     45 H45        -5.1555    3.1858   49.3878 H       1  ZINC000966038509    0.0700
     46 H46        -6.9194    2.1944   50.4507 H       1  ZINC000966038509    0.0800
     47 H47        -6.8935    3.4791   51.6918 H       1  ZINC000966038509    0.0700
     48 H48        -8.8341   -1.0903   51.6817 H       1  ZINC000966038509    0.0800
     49 H49        -8.4463   -1.2562   53.4168 H       1  ZINC000966038509    0.0700
     50 H50       -10.2700   -1.0041   54.9053 H       1  ZINC000966038509    0.0600
     51 H51       -11.8448   -0.4700   54.2703 H       1  ZINC000966038509    0.0700
     52 H52       -11.0351   -1.8888   53.5635 H       1  ZINC000966038509    0.0700
@<TRIPOS>BOND
     1     1     2    1
     2     1    28    1
     3     1    29    1
     4     1    30    1
     5     2     9   ar
     6     2     3   ar
     7     3     4   ar
     8     3    31    1
     9     4     5    1
    10     4     6   ar
    11     6     7   ar
    12     6    32    1
    13     7     8    1
    14     7     9   ar
    15     8    33    1
    16     8    34    1
    17     8    35    1
    18     9    10    1
    19    10    11    2
    20    10    12   am
    21    12    13    1
    22    12    36    1
    23    13    14    1
    24    13    25    1
    25    13    15    1
    26    15    16    1
    27    15    37    1
    28    15    38    1
    29    16    17   am
    30    16    24    1
    31    17    18    2
    32    17    19    1
    33    19    23    1
    34    19    20    1
    35    19    39    1
    36    20    21    1
    37    20    40    1
    38    20    41    1
    39    21    22    1
    40    21    42    1
    41    21    43    1
    42    22    23    1
    43    22    44    1
    44    22    45    1
    45    23    46    1
    46    23    47    1
    47    24    25    1
    48    24    48    1
    49    24    49    1
    50    25    26    1
    51    25    27    1
    52    27    50    1
    53    27    51    1
    54    27    52    1
@<TRIPOS>SUBSTRUCTURE
     1 ZINC000966038509        1 TEMP              0 ****  ****    0 ROOT


##########                                Name:    ZINC000626935317
##########                DOCK_Rotatable_Bonds:                   6
##########                         Heavy_Atoms:                  25
##########                    Molecular_Weight:             366.441
##########                DOCK_Rotatable_Bonds:                   6
##########                       Formal_Charge:          -0.0200006
##########                     HBond_Acceptors:                   9
##########                        HBond_Donors:                   2
##########                         Heavy_Atoms:                  25
##########                          Grid_Score:          -26.285385
##########                     Grid_vdw_energy:          -26.046024
##########                      Grid_es_energy:           -0.239361
##########           Internal_energy_repulsive:           12.341887

@<TRIPOS>MOLECULE
ZINC000626935317
 47 49 1 0 0
SMALL
USER_CHARGES


@<TRIPOS>ATOM
      1 C1         -7.8652    4.2663   50.5555 C.3     1  ZINC000626935317    0.0900
      2 N2         -6.4581    4.3282   50.9590 N.am    1  ZINC000626935317   -0.6200
      3 C3         -5.8347    5.4469   51.3672 C.2     1  ZINC000626935317    0.5200
      4 O4         -6.3521    6.5409   51.4465 O.2     1  ZINC000626935317   -0.5200
      5 C5         -4.3939    5.1427   51.7138 C.3     1  ZINC000626935317   -0.1500
      6 C6         -4.3541    3.6031   51.8518 C.3     1  ZINC000626935317   -0.1200
      7 H7         -4.5068    3.3002   52.8877 H       1  ZINC000626935317    0.1200
      8 C8         -3.0604    3.0468   51.3152 C.2     1  ZINC000626935317    0.5300
      9 O9         -2.9946    1.8843   50.9757 O.2     1  ZINC000626935317   -0.5200
     10 N10        -1.9764    3.8411   51.2127 N.am    1  ZINC000626935317   -0.7100
     11 C11        -0.7182    3.2999   50.6927 C.3     1  ZINC000626935317    0.1200
     12 C12         0.4795    4.2484   50.8676 C.3     1  ZINC000626935317   -0.1600
     13 C13         0.7009    3.5892   52.2391 C.3     1  ZINC000626935317    0.1200
     14 N14        -0.0357    4.2367   53.3273 N.am    1  ZINC000626935317   -1.1100
     15 S15         0.6634    5.4721   54.1802 S.o2    1  ZINC000626935317    2.6100
     16 C16        -0.5937    5.9496   55.3977 C.3     1  ZINC000626935317   -0.6700
     17 O17         1.7766    4.8674   54.8239 O.2     1  ZINC000626935317   -0.9500
     18 O18         0.8439    6.5031   53.2191 O.2     1  ZINC000626935317   -0.9500
     19 C19        -0.0067    2.3484   51.6691 C.3     1  ZINC000626935317   -0.1600
     20 C20        -5.5499    3.1755   50.9754 C.3     1  ZINC000626935317    0.2000
     21 H21        -5.2147    2.9527   49.9624 H       1  ZINC000626935317    0.1100
     22 C22        -6.2318    1.9726   51.5746 C.ar    1  ZINC000626935317   -0.1600
     23 C23        -6.8262    2.0527   52.8245 C.ar    1  ZINC000626935317   -0.0500
     24 C24        -7.4424    0.9206   53.3360 C.ar    1  ZINC000626935317   -0.1700
     25 C25        -7.4438   -0.2413   52.5883 C.ar    1  ZINC000626935317    0.1000
     26 N26        -6.8682   -0.2811   51.4023 N.ar    1  ZINC000626935317   -0.4800
     27 C27        -6.2776    0.7770   50.8824 C.ar    1  ZINC000626935317    0.1200
     28 H28        -8.4840    4.0522   51.4269 H       1  ZINC000626935317    0.0600
     29 H29        -8.1621    5.2228   50.1251 H       1  ZINC000626935317    0.0800
     30 H30        -7.9962    3.4780   49.8142 H       1  ZINC000626935317    0.0700
     31 H31        -3.7314    5.4712   50.9130 H       1  ZINC000626935317    0.1100
     32 H32        -4.1197    5.6173   52.6559 H       1  ZINC000626935317    0.1200
     33 H33        -2.0293    4.7712   51.4831 H       1  ZINC000626935317    0.4000
     34 H34        -0.8151    2.8981   49.6841 H       1  ZINC000626935317    0.1100
     35 H35         1.2880    4.0659   50.1597 H       1  ZINC000626935317    0.1100
     36 H36         0.1984    5.2999   50.9288 H       1  ZINC000626935317    0.0800
     37 H37         1.7510    3.4228   52.4791 H       1  ZINC000626935317    0.1100
     38 H38        -0.9331    3.9417   53.5484 H       1  ZINC000626935317    0.4100
     39 H39        -0.8257    5.0960   56.0344 H       1  ZINC000626935317    0.1300
     40 H40        -0.2140    6.7673   56.0104 H       1  ZINC000626935317    0.1300
     41 H41        -1.4968    6.2728   54.8798 H       1  ZINC000626935317    0.1300
     42 H42        -0.6802    1.8659   52.3773 H       1  ZINC000626935317    0.0900
     43 H43         0.6689    1.6465   51.1804 H       1  ZINC000626935317    0.1100
     44 H44        -6.8092    2.9747   53.3866 H       1  ZINC000626935317    0.1400
     45 H45        -7.9152    0.9468   54.3067 H       1  ZINC000626935317    0.1400
     46 H46        -7.9213   -1.1274   52.9797 H       1  ZINC000626935317    0.1600
     47 H47        -5.8168    0.7063   49.9083 H       1  ZINC000626935317    0.1500
@<TRIPOS>BOND
     1     1     2    1
     2     1    28    1
     3     1    29    1
     4     1    30    1
     5     2    20    1
     6     2     3   am
     7     3     4    2
     8     3     5    1
     9     5     6    1
    10     5    31    1
    11     5    32    1
    12     6     7    1
    13     6     8    1
    14     6    20    1
    15     8     9    2
    16     8    10   am
    17    10    11    1
    18    10    33    1
    19    11    19    1
    20    11    12    1
    21    11    34    1
    22    12    13    1
    23    12    35    1
    24    12    36    1
    25    13    14    1
    26    13    19    1
    27    13    37    1
    28    14    15   am
    29    14    38    1
    30    15    16    1
    31    15    17    2
    32    15    18    2
    33    16    39    1
    34    16    40    1
    35    16    41    1
    36    19    42    1
    37    19    43    1
    38    20    21    1
    39    20    22    1
    40    22    27   ar
    41    22    23   ar
    42    23    24   ar
    43    23    44    1
    44    24    25   ar
    45    24    45    1
    46    25    26   ar
    47    25    46    1
    48    26    27   ar
    49    27    47    1
@<TRIPOS>SUBSTRUCTURE
     1 ZINC000626935317        1 TEMP              0 ****  ****    0 ROOT


##########                                Name:    ZINC000534799364
##########                DOCK_Rotatable_Bonds:                   4
##########                         Heavy_Atoms:                  29
##########                    Molecular_Weight:             391.491
##########                DOCK_Rotatable_Bonds:                   4
##########                       Formal_Charge:           0.0199998
##########                     HBond_Acceptors:                   6
##########                        HBond_Donors:                   0
##########                         Heavy_Atoms:                  29
##########                          Grid_Score:          -26.279451
##########                     Grid_vdw_energy:          -25.823332
##########                      Grid_es_energy:           -0.456120
##########           Internal_energy_repulsive:           12.913202

@<TRIPOS>MOLECULE
ZINC000534799364
 55 59 1 0 0
SMALL
USER_CHARGES


@<TRIPOS>ATOM
      1 C1         -6.6919   -0.0148   52.2165 C.3     1  ZINC000534799364   -0.1100
      2 C2         -8.0652    0.4130   52.6660 C.ar    1  ZINC000534799364   -0.0200
      3 C3         -9.1434   -0.4513   52.5731 C.ar    1  ZINC000534799364   -0.1700
      4 C4        -10.3892   -0.0248   52.9951 C.ar    1  ZINC000534799364    0.1000
      5 N5        -10.5611    1.1884   53.4820 N.ar    1  ZINC000534799364   -0.4800
      6 C6         -9.5625    2.0423   53.5879 C.ar    1  ZINC000534799364    0.0800
      7 C7         -8.2804    1.6855   53.1905 C.ar    1  ZINC000534799364    0.0300
      8 N8         -7.2245    2.5930   53.3046 N.3     1  ZINC000534799364   -0.5000
      9 C9         -6.9549    2.9128   54.7134 C.3     1  ZINC000534799364    0.0600
     10 C10        -5.7441    3.8450   54.7995 C.3     1  ZINC000534799364    0.0600
     11 N11        -6.0134    5.0661   54.0275 N.3     1  ZINC000534799364   -0.5300
     12 C12        -4.9030    6.0204   54.1476 C.3     1  ZINC000534799364    0.1400
     13 C13        -3.5952    5.2717   54.1508 C.2     1  ZINC000534799364    0.1100
     14 N14        -2.9826    4.7953   53.0980 N.2     1  ZINC000534799364   -0.2800
     15 N15        -1.8036    4.1711   53.5225 N.pl3   1  ZINC000534799364   -0.3100
     16 C16        -0.8637    3.5348   52.6987 C.ar    1  ZINC000534799364    0.1500
     17 C17         0.4857    3.5772   53.0221 C.ar    1  ZINC000534799364   -0.1000
     18 C18         1.4097    2.9500   52.2096 C.ar    1  ZINC000534799364   -0.1300
     19 C19         0.9909    2.2793   51.0728 C.ar    1  ZINC000534799364    0.1000
     20 F20         1.8962    1.6661   50.2793 F       1  ZINC000534799364   -0.1300
     21 C21        -0.3548    2.2359   50.7485 C.ar    1  ZINC000534799364   -0.1300
     22 C22        -1.2823    2.8570   51.5617 C.ar    1  ZINC000534799364   -0.0800
     23 C23        -1.7311    4.2904   54.8701 C.2     1  ZINC000534799364    0.0500
     24 C24        -2.8234    4.9714   55.2821 C.2     1  ZINC000534799364   -0.2200
     25 C25        -2.7999    5.1382   56.7864 C.3     1  ZINC000534799364   -0.0400
     26 C26        -1.7727    4.1000   57.2880 C.3     1  ZINC000534799364   -0.1200
     27 C27        -0.8587    3.9317   56.0533 C.3     1  ZINC000534799364   -0.0500
     28 C28        -6.2830    4.7463   52.6187 C.3     1  ZINC000534799364    0.0600
     29 C29        -7.4938    3.8142   52.5326 C.3     1  ZINC000534799364    0.0600
     30 H30        -6.1297   -0.3889   53.0721 H       1  ZINC000534799364    0.0800
     31 H31        -6.7832   -0.8030   51.4692 H       1  ZINC000534799364    0.0600
     32 H32        -6.1694    0.8380   51.7831 H       1  ZINC000534799364    0.0800
     33 H33        -9.0128   -1.4468   52.1752 H       1  ZINC000534799364    0.1400
     34 H34       -11.2334   -0.6947   52.9244 H       1  ZINC000534799364    0.1600
     35 H35        -9.7423    3.0278   53.9916 H       1  ZINC000534799364    0.1500
     36 H36        -7.8249    3.4057   55.1474 H       1  ZINC000534799364    0.0500
     37 H37        -6.7461    1.9939   55.2613 H       1  ZINC000534799364    0.0800
     38 H38        -5.5599    4.1067   55.8415 H       1  ZINC000534799364    0.0900
     39 H39        -4.8679    3.3419   54.3904 H       1  ZINC000534799364    0.0500
     40 H40        -4.9244    6.7107   53.3043 H       1  ZINC000534799364    0.1000
     41 H41        -5.0037    6.5798   55.0776 H       1  ZINC000534799364    0.0500
     42 H42         0.8126    4.1006   53.9085 H       1  ZINC000534799364    0.1400
     43 H43         2.4595    2.9832   52.4608 H       1  ZINC000534799364    0.1500
     44 H44        -0.6795    1.7127   49.8612 H       1  ZINC000534799364    0.1500
     45 H45        -2.3317    2.8228   51.3087 H       1  ZINC000534799364    0.1400
     46 H46        -2.4796    6.1461   57.0506 H       1  ZINC000534799364    0.0800
     47 H47        -3.7842    4.9306   57.2059 H       1  ZINC000534799364    0.0700
     48 H48        -1.2100    4.4877   58.1371 H       1  ZINC000534799364    0.0800
     49 H49        -2.2622    3.1602   57.5435 H       1  ZINC000534799364    0.0800
     50 H50        -0.5190    2.8992   55.9712 H       1  ZINC000534799364    0.0800
     51 H51        -0.0061    4.6077   56.1181 H       1  ZINC000534799364    0.0900
     52 H52        -6.4917    5.6652   52.0708 H       1  ZINC000534799364    0.0900
     53 H53        -5.4130    4.2535   52.1848 H       1  ZINC000534799364    0.0500
     54 H54        -7.6779    3.5525   51.4907 H       1  ZINC000534799364    0.0800
     55 H55        -8.3698    4.3173   52.9419 H       1  ZINC000534799364    0.0500
@<TRIPOS>BOND
     1     1     2    1
     2     1    30    1
     3     1    31    1
     4     1    32    1
     5     2     7   ar
     6     2     3   ar
     7     3     4   ar
     8     3    33    1
     9     4     5   ar
    10     4    34    1
    11     5     6   ar
    12     6     7   ar
    13     6    35    1
    14     7     8    1
    15     8    29    1
    16     8     9    1
    17     9    10    1
    18     9    36    1
    19     9    37    1
    20    10    11    1
    21    10    38    1
    22    10    39    1
    23    11    12    1
    24    11    28    1
    25    12    13    1
    26    12    40    1
    27    12    41    1
    28    13    24    1
    29    13    14    2
    30    14    15    1
    31    15    16    1
    32    15    23    1
    33    16    22   ar
    34    16    17   ar
    35    17    18   ar
    36    17    42    1
    37    18    19   ar
    38    18    43    1
    39    19    20    1
    40    19    21   ar
    41    21    22   ar
    42    21    44    1
    43    22    45    1
    44    23    27    1
    45    23    24    2
    46    24    25    1
    47    25    26    1
    48    25    46    1
    49    25    47    1
    50    26    27    1
    51    26    48    1
    52    26    49    1
    53    27    50    1
    54    27    51    1
    55    28    29    1
    56    28    52    1
    57    28    53    1
    58    29    54    1
    59    29    55    1
@<TRIPOS>SUBSTRUCTURE
     1 ZINC000534799364        1 TEMP              0 ****  ****    0 ROOT


##########                                Name:    ZINC000443933644
##########                DOCK_Rotatable_Bonds:                   8
##########                         Heavy_Atoms:                  27
##########                    Molecular_Weight:             402.438
##########                DOCK_Rotatable_Bonds:                   8
##########                       Formal_Charge:          0.00999922
##########                     HBond_Acceptors:                   9
##########                        HBond_Donors:                   2
##########                         Heavy_Atoms:                  27
##########                          Grid_Score:          -26.263575
##########                     Grid_vdw_energy:          -26.663994
##########                      Grid_es_energy:            0.400419
##########           Internal_energy_repulsive:           34.479473

@<TRIPOS>MOLECULE
ZINC000443933644
 48 49 1 0 0
SMALL
USER_CHARGES


@<TRIPOS>ATOM
      1 C1        -10.2662    2.1911   53.3577 C.3     1  ZINC000443933644   -0.1500
      2 C2         -8.9155    2.5450   52.7322 C.3     1  ZINC000443933644   -0.1400
      3 C3         -7.7878    2.0239   53.6253 C.3     1  ZINC000443933644   -0.1000
      4 H4         -7.9970    0.9929   53.9104 H       1  ZINC000443933644    0.1000
      5 C5         -7.6905    2.8910   54.8820 C.3     1  ZINC000443933644   -0.1700
      6 C6         -6.4636    2.0829   52.8612 C.3     1  ZINC000443933644    0.1200
      7 H7         -5.6375    1.9135   53.5519 H       1  ZINC000443933644    0.1300
      8 N8         -6.3172    3.4011   52.2388 N.am    1  ZINC000443933644   -1.1100
      9 S9         -4.8253    3.9219   51.7433 S.o2    1  ZINC000443933644    2.6900
     10 O10        -4.3076    2.9067   50.8943 O.2     1  ZINC000443933644   -0.9400
     11 O11        -4.9881    5.2718   51.3308 O.2     1  ZINC000443933644   -0.9400
     12 C12        -3.7864    3.9581   53.1661 C.ar    1  ZINC000443933644   -0.7000
     13 C13        -2.3902    4.0059   53.0160 C.ar    1  ZINC000443933644    0.0500
     14 C14        -1.7949    4.0262   51.7427 C.ar    1  ZINC000443933644   -0.1400
     15 C15        -0.4392    4.0729   51.6336 C.ar    1  ZINC000443933644   -0.0800
     16 C16         0.3710    4.1010   52.7671 C.ar    1  ZINC000443933644   -0.1200
     17 C17        -0.1709    4.0822   54.0160 C.ar    1  ZINC000443933644   -0.0900
     18 C18        -1.5656    4.0346   54.1677 C.ar    1  ZINC000443933644   -0.0900
     19 C19        -2.1629    4.0139   55.4459 C.ar    1  ZINC000443933644    0.2300
     20 N20        -1.3697    4.0410   56.5945 N.am    1  ZINC000443933644   -0.6700
     21 C21        -1.1013    2.8975   57.2553 C.2     1  ZINC000443933644    0.5100
     22 C22        -0.2451    2.9268   58.4951 C.3     1  ZINC000443933644   -0.1700
     23 O23        -1.5488    1.8448   56.8521 O.2     1  ZINC000443933644   -0.5100
     24 C24        -3.5364    3.9669   55.5503 C.ar    1  ZINC000443933644   -0.1600
     25 C25        -4.3362    3.9455   54.4117 C.ar    1  ZINC000443933644    0.0400
     26 C26        -6.4516    1.0031   51.7772 C.3     1  ZINC000443933644    0.4300
     27 F27        -6.7388    1.5838   50.5373 F       1  ZINC000443933644   -0.1700
     28 F28        -5.1884    0.4037   51.7301 F       1  ZINC000443933644   -0.1600
     29 F29        -7.4167    0.0346   52.0733 F       1  ZINC000443933644   -0.1700
     30 H30       -10.3496    1.1086   53.4540 H       1  ZINC000443933644    0.0500
     31 H31       -10.3416    2.6504   54.3433 H       1  ZINC000443933644    0.0600
     32 H32       -11.0697    2.5624   52.7215 H       1  ZINC000443933644    0.0600
     33 H33        -8.8401    2.0857   51.7466 H       1  ZINC000443933644    0.0700
     34 H34        -8.8321    3.6275   52.6359 H       1  ZINC000443933644    0.0900
     35 H35        -8.5882    2.7578   55.4858 H       1  ZINC000443933644    0.0700
     36 H36        -6.8158    2.5948   55.4611 H       1  ZINC000443933644    0.0600
     37 H37        -7.5982    3.9383   54.5946 H       1  ZINC000443933644    0.0700
     38 H38        -7.0942    3.9689   52.1170 H       1  ZINC000443933644    0.4300
     39 H39        -2.4104    4.0044   50.8553 H       1  ZINC000443933644    0.1400
     40 H40         0.0156    4.0881   50.6541 H       1  ZINC000443933644    0.1300
     41 H41         1.4443    4.1380   52.6532 H       1  ZINC000443933644    0.1300
     42 H42         0.4691    4.1037   54.8856 H       1  ZINC000443933644    0.1300
     43 H43        -1.0120    4.8830   56.9170 H       1  ZINC000443933644    0.4200
     44 H44         0.0620    3.9523   58.7003 H       1  ZINC000443933644    0.0800
     45 H45        -0.8163    2.5425   59.3402 H       1  ZINC000443933644    0.1000
     46 H46         0.6381    2.3068   58.3414 H       1  ZINC000443933644    0.1000
     47 H47        -3.9972    3.9509   56.5269 H       1  ZINC000443933644    0.1500
     48 H48        -5.4104    3.9087   54.5178 H       1  ZINC000443933644    0.1500
@<TRIPOS>BOND
     1     1     2    1
     2     1    30    1
     3     1    31    1
     4     1    32    1
     5     2     3    1
     6     2    33    1
     7     2    34    1
     8     3     4    1
     9     3     5    1
    10     3     6    1
    11     5    35    1
    12     5    36    1
    13     5    37    1
    14     6     7    1
    15     6     8    1
    16     6    26    1
    17     8     9   am
    18     8    38    1
    19     9    10    2
    20     9    11    2
    21     9    12    1
    22    12    25   ar
    23    12    13   ar
    24    13    18   ar
    25    13    14   ar
    26    14    15   ar
    27    14    39    1
    28    15    16   ar
    29    15    40    1
    30    16    17   ar
    31    16    41    1
    32    17    18   ar
    33    17    42    1
    34    18    19   ar
    35    19    20    1
    36    19    24   ar
    37    20    21   am
    38    20    43    1
    39    21    22    1
    40    21    23    2
    41    22    44    1
    42    22    45    1
    43    22    46    1
    44    24    25   ar
    45    24    47    1
    46    25    48    1
    47    26    27    1
    48    26    28    1
    49    26    29    1
@<TRIPOS>SUBSTRUCTURE
     1 ZINC000443933644        1 TEMP              0 ****  ****    0 ROOT


##########                                Name:    ZINC000225856071
##########                DOCK_Rotatable_Bonds:                   6
##########                         Heavy_Atoms:                  29
##########                    Molecular_Weight:             409.549
##########                DOCK_Rotatable_Bonds:                   6
##########                       Formal_Charge:         -0.00999989
##########                     HBond_Acceptors:                   5
##########                        HBond_Donors:                   1
##########                         Heavy_Atoms:                  29
##########                          Grid_Score:          -26.236568
##########                     Grid_vdw_energy:          -25.355478
##########                      Grid_es_energy:           -0.881090
##########           Internal_energy_repulsive:           29.470455

@<TRIPOS>MOLECULE
ZINC000225856071
 56 58 1 0 0
SMALL
USER_CHARGES


@<TRIPOS>ATOM
      1 C1         -5.0445    0.4530   51.8828 C.3     1  ZINC000225856071    0.0200
      2 O2         -6.1449    0.7720   51.0289 O.3     1  ZINC000225856071   -0.3100
      3 C3         -7.2958    1.1738   51.6297 C.ar    1  ZINC000225856071    0.1900
      4 C4         -8.1044    0.2474   52.2715 C.ar    1  ZINC000225856071   -0.2300
      5 C5         -9.2738    0.6584   52.8820 C.ar    1  ZINC000225856071    0.0700
      6 C6        -10.1528   -0.3475   53.5795 C.3     1  ZINC000225856071   -0.1800
      7 C7         -9.6379    1.9917   52.8540 C.ar    1  ZINC000225856071   -0.7100
      8 S8        -11.1294    2.5128   53.6340 S.o2    1  ZINC000225856071    2.7000
      9 O9        -11.1885    1.8341   54.8810 O.2     1  ZINC000225856071   -0.9600
     10 O10       -11.1701    3.9284   53.5169 O.2     1  ZINC000225856071   -0.9500
     11 N11       -12.3864    1.9322   52.7254 N.am    1  ZINC000225856071   -1.1100
     12 C12       -12.5212    2.3308   51.3221 C.3     1  ZINC000225856071    0.2400
     13 H13       -11.5333    2.3943   50.8660 H       1  ZINC000225856071    0.1100
     14 C14       -13.1976    3.6751   51.2445 C.ar    1  ZINC000225856071   -0.1000
     15 C15       -14.5128    3.8115   51.6481 C.ar    1  ZINC000225856071   -0.1000
     16 C16       -15.1333    5.0446   51.5770 C.ar    1  ZINC000225856071   -0.1200
     17 C17       -14.4386    6.1417   51.1027 C.ar    1  ZINC000225856071   -0.1100
     18 C18       -13.1232    6.0055   50.7000 C.ar    1  ZINC000225856071   -0.1100
     19 C19       -12.5013    4.7733   50.7752 C.ar    1  ZINC000225856071   -0.1000
     20 C20       -13.3492    1.3086   50.5869 C.ar    1  ZINC000225856071   -0.0900
     21 C21       -14.0502    0.3495   51.2934 C.ar    1  ZINC000225856071   -0.1000
     22 C22       -14.8099   -0.5882   50.6189 C.ar    1  ZINC000225856071   -0.1200
     23 C23       -14.8687   -0.5664   49.2382 C.ar    1  ZINC000225856071   -0.0800
     24 C24       -15.6963   -1.5889   48.5030 C.3     1  ZINC000225856071   -0.1200
     25 C25       -14.1685    0.3938   48.5315 C.ar    1  ZINC000225856071   -0.1200
     26 C26       -13.4122    1.3336   49.2060 C.ar    1  ZINC000225856071   -0.0600
     27 C27       -12.6490    2.3803   48.4358 C.3     1  ZINC000225856071   -0.1300
     28 C28        -8.8332    2.9173   52.2152 C.ar    1  ZINC000225856071    0.0200
     29 C29        -7.6610    2.5122   51.6071 C.ar    1  ZINC000225856071   -0.1400
     30 C30        -6.7844    3.5215   50.9115 C.3     1  ZINC000225856071   -0.1100
     31 H31        -5.3265   -0.3617   52.5499 H       1  ZINC000225856071    0.0600
     32 H32        -4.1911    0.1477   51.2772 H       1  ZINC000225856071    0.1000
     33 H33        -4.7764    1.3294   52.4729 H       1  ZINC000225856071    0.0600
     34 H34        -7.8204   -0.7944   52.2938 H       1  ZINC000225856071    0.1400
     35 H35        -9.8572   -0.4247   54.6258 H       1  ZINC000225856071    0.0900
     36 H36       -11.1923   -0.0258   53.5184 H       1  ZINC000225856071    0.1000
     37 H37       -10.0446   -1.3198   53.0988 H       1  ZINC000225856071    0.0800
     38 H38       -13.0333    1.3282   53.1223 H       1  ZINC000225856071    0.4200
     39 H39       -15.0555    2.9544   52.0187 H       1  ZINC000225856071    0.1200
     40 H40       -16.1610    5.1510   51.8916 H       1  ZINC000225856071    0.1200
     41 H41       -14.9236    7.1049   51.0464 H       1  ZINC000225856071    0.1200
     42 H42       -12.5806    6.8625   50.3291 H       1  ZINC000225856071    0.1200
     43 H43       -11.4736    4.6669   50.4605 H       1  ZINC000225856071    0.1200
     44 H44       -14.0043    0.3325   52.3724 H       1  ZINC000225856071    0.1200
     45 H45       -15.3571   -1.3380   51.1709 H       1  ZINC000225856071    0.1200
     46 H46       -16.7093   -1.2090   48.3702 H       1  ZINC000225856071    0.0700
     47 H47       -15.2506   -1.7837   47.5275 H       1  ZINC000225856071    0.0700
     48 H48       -15.7277   -2.5135   49.0794 H       1  ZINC000225856071    0.0700
     49 H49       -14.2148    0.4110   47.4527 H       1  ZINC000225856071    0.1200
     50 H50       -13.2795    3.2577   48.2925 H       1  ZINC000225856071    0.0800
     51 H51       -11.7555    2.6619   48.9930 H       1  ZINC000225856071    0.0700
     52 H52       -12.3599    1.9781   47.4649 H       1  ZINC000225856071    0.0700
     53 H53        -9.1196    3.9585   52.1949 H       1  ZINC000225856071    0.1500
     54 H54        -6.0623    3.9258   51.6210 H       1  ZINC000225856071    0.0700
     55 H55        -6.2552    3.0383   50.0902 H       1  ZINC000225856071    0.0700
     56 H56        -7.4014    4.3304   50.5204 H       1  ZINC000225856071    0.0700
@<TRIPOS>BOND
     1     1     2    1
     2     1    31    1
     3     1    32    1
     4     1    33    1
     5     2     3    1
     6     3    29   ar
     7     3     4   ar
     8     4     5   ar
     9     4    34    1
    10     5     6    1
    11     5     7   ar
    12     6    35    1
    13     6    36    1
    14     6    37    1
    15     7     8    1
    16     7    28   ar
    17     8     9    2
    18     8    10    2
    19     8    11   am
    20    11    12    1
    21    11    38    1
    22    12    13    1
    23    12    14    1
    24    12    20    1
    25    14    19   ar
    26    14    15   ar
    27    15    16   ar
    28    15    39    1
    29    16    17   ar
    30    16    40    1
    31    17    18   ar
    32    17    41    1
    33    18    19   ar
    34    18    42    1
    35    19    43    1
    36    20    26   ar
    37    20    21   ar
    38    21    22   ar
    39    21    44    1
    40    22    23   ar
    41    22    45    1
    42    23    24    1
    43    23    25   ar
    44    24    46    1
    45    24    47    1
    46    24    48    1
    47    25    26   ar
    48    25    49    1
    49    26    27    1
    50    27    50    1
    51    27    51    1
    52    27    52    1
    53    28    29   ar
    54    28    53    1
    55    29    30    1
    56    30    54    1
    57    30    55    1
    58    30    56    1
@<TRIPOS>SUBSTRUCTURE
     1 ZINC000225856071        1 TEMP              0 ****  ****    0 ROOT


##########                                Name:    ZINC000467104849
##########                DOCK_Rotatable_Bonds:                   6
##########                         Heavy_Atoms:                  29
##########                    Molecular_Weight:             421.896
##########                DOCK_Rotatable_Bonds:                   6
##########                       Formal_Charge:           0.0200002
##########                     HBond_Acceptors:                   7
##########                        HBond_Donors:                   0
##########                         Heavy_Atoms:                  29
##########                          Grid_Score:          -26.192745
##########                     Grid_vdw_energy:          -25.791842
##########                      Grid_es_energy:           -0.400903
##########           Internal_energy_repulsive:          101.376488

@<TRIPOS>MOLECULE
ZINC000467104849
 54 56 1 0 0
SMALL
USER_CHARGES


@<TRIPOS>ATOM
      1 C1        -13.2770   -0.0556   51.2995 C.3     1  ZINC000467104849    0.0200
      2 O2        -12.0695   -0.5045   51.9180 O.3     1  ZINC000467104849   -0.3000
      3 C3        -11.3249    0.4292   52.5685 C.ar    1  ZINC000467104849    0.1000
      4 C4        -10.1275    0.0698   53.1650 C.ar    1  ZINC000467104849   -0.1700
      5 C5         -9.3714    1.0205   53.8257 C.ar    1  ZINC000467104849   -0.1200
      6 C6         -9.8077    2.3302   53.8932 C.ar    1  ZINC000467104849   -0.0800
      7 C7         -8.9801    3.3623   54.6149 C.3     1  ZINC000467104849   -0.0400
      8 C8         -9.2909    4.7503   54.0513 C.3     1  ZINC000467104849   -0.1300
      9 C9         -9.3145    3.3314   56.1076 C.3     1  ZINC000467104849   -0.1600
     10 C10        -7.5170    3.0577   54.4215 C.2     1  ZINC000467104849    0.5300
     11 O11        -6.7701    3.0380   55.3769 O.2     1  ZINC000467104849   -0.5300
     12 N12        -7.0383    2.8071   53.1867 N.am    1  ZINC000467104849   -0.6100
     13 C13        -7.9250    2.8254   52.0125 C.3     1  ZINC000467104849    0.0600
     14 C14        -7.2899    3.7188   50.9409 C.3     1  ZINC000467104849    0.0500
     15 O15        -5.9434    3.2961   50.7131 O.3     1  ZINC000467104849   -0.3700
     16 C16        -5.0910    3.4168   51.8545 C.3     1  ZINC000467104849    0.1300
     17 H17        -5.0870    4.4512   52.1982 H       1  ZINC000467104849    0.0800
     18 C18        -3.6901    3.0045   51.4825 C.ar    1  ZINC000467104849   -0.0900
     19 C19        -3.4894    1.9674   50.5910 C.ar    1  ZINC000467104849   -0.0500
     20 C20        -2.2051    1.5877   50.2486 C.ar    1  ZINC000467104849   -0.1400
     21 C21        -1.1191    2.2467   50.7983 C.ar    1  ZINC000467104849    0.1200
     22 F22         0.1364    1.8767   50.4639 F       1  ZINC000467104849   -0.1200
     23 C23        -1.3210    3.2867   51.6917 C.ar    1  ZINC000467104849   -0.0800
     24 Cl24        0.0394    4.1149   52.3825 Cl      1  ZINC000467104849   -0.0400
     25 C25        -2.6070    3.6675   52.0288 C.ar    1  ZINC000467104849   -0.0700
     26 C26        -5.6125    2.5134   52.9721 C.3     1  ZINC000467104849    0.0900
     27 C27       -11.0020    2.6959   53.2994 C.ar    1  ZINC000467104849   -0.1600
     28 C28       -11.7616    1.7494   52.6314 C.ar    1  ZINC000467104849    0.1100
     29 O29       -12.9363    2.1073   52.0470 O.3     1  ZINC000467104849   -0.3000
     30 C30       -13.3220    3.4792   52.1526 C.3     1  ZINC000467104849    0.0200
     31 H31       -13.7731   -0.8978   50.8172 H       1  ZINC000467104849    0.1000
     32 H32       -13.9364    0.3698   52.0561 H       1  ZINC000467104849    0.0600
     33 H33       -13.0426    0.7038   50.5535 H       1  ZINC000467104849    0.0600
     34 H34        -9.7847   -0.9531   53.1145 H       1  ZINC000467104849    0.1400
     35 H35        -8.4380    0.7391   54.2904 H       1  ZINC000467104849    0.1300
     36 H36       -10.3274    5.0074   54.2696 H       1  ZINC000467104849    0.0700
     37 H37        -8.6298    5.4854   54.5104 H       1  ZINC000467104849    0.0700
     38 H38        -9.1368    4.7472   52.9722 H       1  ZINC000467104849    0.0700
     39 H39        -9.0107    2.3729   56.5282 H       1  ZINC000467104849    0.0700
     40 H40        -8.7831    4.1360   56.6157 H       1  ZINC000467104849    0.0700
     41 H41       -10.3881    3.4634   56.2421 H       1  ZINC000467104849    0.0700
     42 H42        -8.0415    1.8134   51.6247 H       1  ZINC000467104849    0.0800
     43 H43        -8.8990    3.2256   52.2941 H       1  ZINC000467104849    0.1100
     44 H44        -7.8588    3.6370   50.0148 H       1  ZINC000467104849    0.1100
     45 H45        -7.2938    4.7544   51.2812 H       1  ZINC000467104849    0.0600
     46 H46        -4.3366    1.4530   50.1620 H       1  ZINC000467104849    0.1500
     47 H47        -2.0490    0.7769   49.5525 H       1  ZINC000467104849    0.1500
     48 H48        -2.7650    4.4782   52.7246 H       1  ZINC000467104849    0.1500
     49 H49        -5.0547    2.7045   53.8890 H       1  ZINC000467104849    0.1100
     50 H50        -5.4980    1.4687   52.6833 H       1  ZINC000467104849    0.0800
     51 H51       -11.3406    3.7199   53.3535 H       1  ZINC000467104849    0.1400
     52 H52       -13.4241    3.7479   53.2041 H       1  ZINC000467104849    0.0600
     53 H53       -12.5610    4.1072   51.6893 H       1  ZINC000467104849    0.0600
     54 H54       -14.2749    3.6288   51.6451 H       1  ZINC000467104849    0.1000
@<TRIPOS>BOND
     1     1     2    1
     2     1    31    1
     3     1    32    1
     4     1    33    1
     5     2     3    1
     6     3    28   ar
     7     3     4   ar
     8     4     5   ar
     9     4    34    1
    10     5     6   ar
    11     5    35    1
    12     6     7    1
    13     6    27   ar
    14     7     8    1
    15     7     9    1
    16     7    10    1
    17     8    36    1
    18     8    37    1
    19     8    38    1
    20     9    39    1
    21     9    40    1
    22     9    41    1
    23    10    11    2
    24    10    12   am
    25    12    26    1
    26    12    13    1
    27    13    14    1
    28    13    42    1
    29    13    43    1
    30    14    15    1
    31    14    44    1
    32    14    45    1
    33    15    16    1
    34    16    17    1
    35    16    18    1
    36    16    26    1
    37    18    25   ar
    38    18    19   ar
    39    19    20   ar
    40    19    46    1
    41    20    21   ar
    42    20    47    1
    43    21    22    1
    44    21    23   ar
    45    23    24    1
    46    23    25   ar
    47    25    48    1
    48    26    49    1
    49    26    50    1
    50    27    28   ar
    51    27    51    1
    52    28    29    1
    53    29    30    1
    54    30    52    1
    55    30    53    1
    56    30    54    1
@<TRIPOS>SUBSTRUCTURE
     1 ZINC000467104849        1 TEMP              0 ****  ****    0 ROOT


##########                                Name:    ZINC000942890482
##########                DOCK_Rotatable_Bonds:                   8
##########                         Heavy_Atoms:                  25
##########                    Molecular_Weight:             346.445
##########                DOCK_Rotatable_Bonds:                   8
##########                       Formal_Charge:          -0.0100004
##########                     HBond_Acceptors:                   5
##########                        HBond_Donors:                   0
##########                         Heavy_Atoms:                  25
##########                          Grid_Score:          -26.168028
##########                     Grid_vdw_energy:          -25.397991
##########                      Grid_es_energy:           -0.770037
##########           Internal_energy_repulsive:           24.492962

@<TRIPOS>MOLECULE
ZINC000942890482
 52 54 1 0 0
SMALL
USER_CHARGES


@<TRIPOS>ATOM
      1 C1        -14.2012    0.6361   55.1546 C.3     1  ZINC000942890482   -0.1700
      2 C2        -13.8292   -0.3071   54.0088 C.3     1  ZINC000942890482    0.1000
      3 N3        -12.4871    0.0215   53.5219 N.am    1  ZINC000942890482   -0.6000
      4 C4        -11.4071   -0.2736   54.2723 C.2     1  ZINC000942890482    0.5700
      5 O5        -11.5468   -0.8124   55.3531 O.2     1  ZINC000942890482   -0.5100
      6 C6        -10.0538    0.0577   53.7815 C.ar    1  ZINC000942890482   -0.1400
      7 C7         -9.4092   -0.7897   52.8781 C.ar    1  ZINC000942890482   -0.0600
      8 C8         -8.1464   -0.4754   52.4228 C.ar    1  ZINC000942890482   -0.1600
      9 C9         -7.5166    0.6794   52.8605 C.ar    1  ZINC000942890482    0.1300
     10 F10        -6.2790    0.9827   52.4113 F       1  ZINC000942890482   -0.1300
     11 C11        -8.1524    1.5247   53.7574 C.ar    1  ZINC000942890482   -0.1600
     12 C12        -9.4167    1.2226   54.2151 C.ar    1  ZINC000942890482   -0.0100
     13 C13       -10.1065    2.1421   55.1896 C.3     1  ZINC000942890482   -0.1200
     14 C14       -12.3189    0.6709   52.2195 C.3     1  ZINC000942890482    0.1400
     15 H15       -11.2665    0.8705   52.0179 H       1  ZINC000942890482    0.1100
     16 C16       -13.1581    1.9732   52.1349 C.3     1  ZINC000942890482   -0.1500
     17 C17       -13.4173    2.1195   50.6206 C.3     1  ZINC000942890482    0.1100
     18 N18       -13.2647    0.7859   50.0207 N.am    1  ZINC000942890482   -0.6200
     19 C19       -13.3906    0.4947   48.7109 C.2     1  ZINC000942890482    0.5300
     20 O20       -13.2437   -0.6461   48.3264 O.2     1  ZINC000942890482   -0.5400
     21 C21       -13.7140    1.5868   47.7239 C.3     1  ZINC000942890482   -0.1300
     22 C22       -14.9828    1.2178   46.9526 C.3     1  ZINC000942890482   -0.0700
     23 C23       -16.2117    1.6313   47.7647 C.3     1  ZINC000942890482   -0.1600
     24 C24       -17.4753    0.7815   47.6161 C.3     1  ZINC000942890482   -0.1800
     25 C25       -16.6503    0.7072   48.9025 C.3     1  ZINC000942890482   -0.1800
     26 C26       -12.9491   -0.1804   51.0891 C.3     1  ZINC000942890482    0.0900
     27 H27       -13.4824    0.5230   55.9662 H       1  ZINC000942890482    0.0600
     28 H28       -14.1863    1.6657   54.7971 H       1  ZINC000942890482    0.0600
     29 H29       -15.1997    0.3916   55.5168 H       1  ZINC000942890482    0.0700
     30 H30       -13.8440   -1.3366   54.3663 H       1  ZINC000942890482    0.0900
     31 H31       -14.5479   -0.1940   53.1971 H       1  ZINC000942890482    0.0900
     32 H32        -9.8989   -1.6897   52.5367 H       1  ZINC000942890482    0.1400
     33 H33        -7.6468   -1.1303   51.7243 H       1  ZINC000942890482    0.1400
     34 H34        -7.6572    2.4231   54.0951 H       1  ZINC000942890482    0.1400
     35 H35       -10.6231    2.9304   54.6421 H       1  ZINC000942890482    0.0900
     36 H36       -10.8284    1.5741   55.7764 H       1  ZINC000942890482    0.0700
     37 H37        -9.3667    2.5869   55.8553 H       1  ZINC000942890482    0.0700
     38 H38       -14.0968    1.8630   52.6780 H       1  ZINC000942890482    0.1000
     39 H39       -12.5901    2.8232   52.5128 H       1  ZINC000942890482    0.0900
     40 H40       -14.4289    2.4884   50.4516 H       1  ZINC000942890482    0.0700
     41 H41       -12.6922    2.8071   50.1852 H       1  ZINC000942890482    0.0700
     42 H42       -13.8729    2.5236   48.2579 H       1  ZINC000942890482    0.0900
     43 H43       -12.8850    1.7026   47.0257 H       1  ZINC000942890482    0.0900
     44 H44       -14.9891    1.7368   45.9941 H       1  ZINC000942890482    0.0700
     45 H45       -15.0047    0.1413   46.7830 H       1  ZINC000942890482    0.0700
     46 H46       -16.3403    2.7040   47.9094 H       1  ZINC000942890482    0.1000
     47 H47       -18.4356    1.2951   47.6631 H       1  ZINC000942890482    0.0900
     48 H48       -17.4311   -0.0722   46.9398 H       1  ZINC000942890482    0.0900
     49 H49       -16.0633   -0.1953   49.0725 H       1  ZINC000942890482    0.0900
     50 H50       -17.0678    1.1719   49.7957 H       1  ZINC000942890482    0.0900
     51 H51       -12.2370   -0.9235   50.7303 H       1  ZINC000942890482    0.0800
     52 H52       -13.8589   -0.6654   51.4428 H       1  ZINC000942890482    0.0900
@<TRIPOS>BOND
     1     1     2    1
     2     1    27    1
     3     1    28    1
     4     1    29    1
     5     2     3    1
     6     2    30    1
     7     2    31    1
     8     3     4   am
     9     3    14    1
    10     4     5    2
    11     4     6    1
    12     6    12   ar
    13     6     7   ar
    14     7     8   ar
    15     7    32    1
    16     8     9   ar
    17     8    33    1
    18     9    10    1
    19     9    11   ar
    20    11    12   ar
    21    11    34    1
    22    12    13    1
    23    13    35    1
    24    13    36    1
    25    13    37    1
    26    14    15    1
    27    14    26    1
    28    14    16    1
    29    16    17    1
    30    16    38    1
    31    16    39    1
    32    17    18    1
    33    17    40    1
    34    17    41    1
    35    18    19   am
    36    18    26    1
    37    19    20    2
    38    19    21    1
    39    21    22    1
    40    21    42    1
    41    21    43    1
    42    22    23    1
    43    22    44    1
    44    22    45    1
    45    23    25    1
    46    23    24    1
    47    23    46    1
    48    24    25    1
    49    24    47    1
    50    24    48    1
    51    25    49    1
    52    25    50    1
    53    26    51    1
    54    26    52    1
@<TRIPOS>SUBSTRUCTURE
     1 ZINC000942890482        1 TEMP              0 ****  ****    0 ROOT


##########                                Name:    ZINC000793092912
##########                DOCK_Rotatable_Bonds:                   4
##########                         Heavy_Atoms:                  26
##########                    Molecular_Weight:               407.2
##########                DOCK_Rotatable_Bonds:                   4
##########                       Formal_Charge:         2.90573e-07
##########                     HBond_Acceptors:                  10
##########                        HBond_Donors:                   1
##########                         Heavy_Atoms:                  26
##########                          Grid_Score:          -26.157776
##########                     Grid_vdw_energy:          -25.775766
##########                      Grid_es_energy:           -0.382010
##########           Internal_energy_repulsive:           20.420366

@<TRIPOS>MOLECULE
ZINC000793092912
 40 43 1 0 0
SMALL
USER_CHARGES


@<TRIPOS>ATOM
      1 C1        -14.4592    1.6808   53.8130 C.3     1  ZINC000793092912   -0.1300
      2 C2        -12.9856    1.2715   53.8558 C.3     1  ZINC000793092912   -0.0800
      3 C3        -12.7299   -0.2277   53.8661 C.3     1  ZINC000793092912   -0.1100
      4 C4        -11.7302   -0.6527   52.8071 C.3     1  ZINC000793092912    0.1100
      5 N5        -10.6154    0.2741   52.7080 N.am    1  ZINC000793092912   -0.5700
      6 C6         -9.3620   -0.1994   52.8537 C.2     1  ZINC000793092912    0.5100
      7 O7         -9.1802   -1.3808   53.0638 O.2     1  ZINC000793092912   -0.5100
      8 C8         -8.1969    0.7296   52.7569 C.2     1  ZINC000793092912    0.5100
      9 O9         -8.0474    1.6041   53.5855 O.2     1  ZINC000793092912   -0.4900
     10 N10        -7.3113    0.5973   51.7496 N.am    1  ZINC000793092912   -0.6400
     11 C11        -6.2201    1.4674   51.6589 C.ar    1  ZINC000793092912    0.1600
     12 C12        -6.3971    2.8280   51.8729 C.ar    1  ZINC000793092912   -0.1200
     13 C13        -5.3198    3.6889   51.7836 C.ar    1  ZINC000793092912   -0.0600
     14 C14        -4.0606    3.1975   51.4798 C.ar    1  ZINC000793092912    0.0200
     15 O15        -2.8562    3.8249   51.3344 O.3     1  ZINC000793092912   -0.2800
     16 C16        -1.8663    2.7840   51.4320 C.3     1  ZINC000793092912    0.5700
     17 F17        -0.7791    3.0595   50.5958 F       1  ZINC000793092912   -0.1100
     18 F18        -1.4403    2.6333   52.7561 F       1  ZINC000793092912   -0.1500
     19 O19        -2.5629    1.6060   50.9846 O.3     1  ZINC000793092912   -0.2800
     20 C20        -3.8796    1.8326   51.2645 C.ar    1  ZINC000793092912    0.0500
     21 C21        -4.9579    0.9700   51.3603 C.ar    1  ZINC000793092912   -0.0900
     22 C22       -10.8037    1.6949   52.4564 C.3     1  ZINC000793092912    0.1100
     23 C23       -11.9837    2.2391   53.2479 C.3     1  ZINC000793092912   -0.1200
     24 H24       -12.4179    3.1534   52.8434 H       1  ZINC000793092912    0.1400
     25 C25       -12.0611    2.1031   54.7611 C.3     1  ZINC000793092912    0.0000
     26 Cl26      -12.7834    3.4723   55.6854 Cl      1  ZINC000793092912   -0.0800
     27 Cl27      -10.7217    1.2245   55.5888 Cl      1  ZINC000793092912   -0.0900
     28 H28       -14.7700    1.8119   52.7764 H       1  ZINC000793092912    0.0800
     29 H29       -15.0657    0.9039   54.2786 H       1  ZINC000793092912    0.0700
     30 H30       -14.5919    2.6180   54.3533 H       1  ZINC000793092912    0.0700
     31 H31       -12.3486   -0.5138   54.8463 H       1  ZINC000793092912    0.0900
     32 H32       -13.6719   -0.7475   53.6909 H       1  ZINC000793092912    0.1000
     33 H33       -11.3475   -1.6420   53.0577 H       1  ZINC000793092912    0.1100
     34 H34       -12.2356   -0.7036   51.8427 H       1  ZINC000793092912    0.0800
     35 H35        -7.4308   -0.1015   51.0875 H       1  ZINC000793092912    0.4300
     36 H36        -7.3778    3.2139   52.1090 H       1  ZINC000793092912    0.1500
     37 H37        -5.4598    4.7467   51.9505 H       1  ZINC000793092912    0.1500
     38 H38        -4.8186   -0.0888   51.1993 H       1  ZINC000793092912    0.1600
     39 H39        -9.9070    2.2337   52.7629 H       1  ZINC000793092912    0.1400
     40 H40       -10.9652    1.8504   51.3897 H       1  ZINC000793092912    0.1000
@<TRIPOS>BOND
     1     1     2    1
     2     1    28    1
     3     1    29    1
     4     1    30    1
     5     2    23    1
     6     2    25    1
     7     2     3    1
     8     3     4    1
     9     3    31    1
    10     3    32    1
    11     4     5    1
    12     4    33    1
    13     4    34    1
    14     5     6   am
    15     5    22    1
    16     6     7    2
    17     6     8    1
    18     8     9    2
    19     8    10   am
    20    10    11    1
    21    10    35    1
    22    11    21   ar
    23    11    12   ar
    24    12    13   ar
    25    12    36    1
    26    13    14   ar
    27    13    37    1
    28    14    20   ar
    29    14    15    1
    30    15    16    1
    31    16    17    1
    32    16    18    1
    33    16    19    1
    34    19    20    1
    35    20    21   ar
    36    21    38    1
    37    22    23    1
    38    22    39    1
    39    22    40    1
    40    23    24    1
    41    23    25    1
    42    25    26    1
    43    25    27    1
@<TRIPOS>SUBSTRUCTURE
     1 ZINC000793092912        1 TEMP              0 ****  ****    0 ROOT


##########                                Name:    ZINC000438893617
##########                DOCK_Rotatable_Bonds:                   5
##########                         Heavy_Atoms:                  29
##########                    Molecular_Weight:             412.596
##########                DOCK_Rotatable_Bonds:                   5
##########                       Formal_Charge:           0.0600001
##########                     HBond_Acceptors:                   5
##########                        HBond_Donors:                   0
##########                         Heavy_Atoms:                  29
##########                          Grid_Score:          -26.139206
##########                     Grid_vdw_energy:          -25.264362
##########                      Grid_es_energy:           -0.874843
##########           Internal_energy_repulsive:          168.603775

@<TRIPOS>MOLECULE
ZINC000438893617
 61 66 1 0 0
SMALL
USER_CHARGES


@<TRIPOS>ATOM
      1 C1          0.3657    3.8039   52.1693 C.3     1  ZINC000438893617   -0.1000
      2 C2         -0.1006    2.9732   51.0016 C.2     1  ZINC000438893617   -0.0900
      3 C3         -1.3771    2.9289   50.6170 C.2     1  ZINC000438893617   -0.1600
      4 C4         -2.5082    3.6794   51.2714 C.3     1  ZINC000438893617   -0.0400
      5 H5         -2.4551    4.7657   51.1998 H       1  ZINC000438893617    0.1400
      6 C6         -3.1062    3.0839   52.5476 C.3     1  ZINC000438893617   -0.1400
      7 C7         -3.8959    3.0362   51.2372 C.3     1  ZINC000438893617   -0.1800
      8 H8         -3.9909    2.0700   50.7417 H       1  ZINC000438893617    0.1300
      9 C9         -5.0853    3.9526   51.1078 C.2     1  ZINC000438893617    0.5500
     10 O10        -4.9195    5.1482   50.9889 O.2     1  ZINC000438893617   -0.5300
     11 N11        -6.3331    3.4436   51.1240 N.am    1  ZINC000438893617   -0.6100
     12 C12        -6.5493    1.9979   51.2752 C.3     1  ZINC000438893617    0.0900
     13 C13        -7.4778    1.7638   52.4733 C.3     1  ZINC000438893617    0.1000
     14 N14        -8.6467    2.6447   52.3407 N.am    1  ZINC000438893617   -0.6100
     15 C15        -9.8946    2.1358   52.3578 C.2     1  ZINC000438893617    0.5300
     16 O16       -10.0605    0.9409   52.4835 O.2     1  ZINC000438893617   -0.5300
     17 C17       -11.0837    3.0514   52.2208 C.3     1  ZINC000438893617   -0.0700
     18 C18       -12.3722    2.2332   52.3256 C.3     1  ZINC000438893617   -0.1100
     19 C19       -13.5794    3.1628   52.1865 C.3     1  ZINC000438893617   -0.0800
     20 C20       -13.5294    3.8638   50.8274 C.3     1  ZINC000438893617   -0.1100
     21 C21       -12.2409    4.6820   50.7227 C.3     1  ZINC000438893617   -0.0800
     22 C22       -12.2094    5.7290   51.8379 C.3     1  ZINC000438893617   -0.1100
     23 C23       -12.2594    5.0281   53.1970 C.3     1  ZINC000438893617   -0.0900
     24 C24       -13.5481    4.2099   53.3017 C.3     1  ZINC000438893617   -0.1100
     25 C25       -11.0523    4.0984   53.3361 C.3     1  ZINC000438893617   -0.0900
     26 C26       -11.0337    3.7524   50.8617 C.3     1  ZINC000438893617   -0.1200
     27 C27        -8.4306    4.0905   52.1894 C.3     1  ZINC000438893617    0.0700
     28 C28        -7.5022    4.3251   50.9970 C.3     1  ZINC000438893617    0.1000
     29 S29        -1.5380    1.8609   49.2288 S.3     1  ZINC000438893617    0.1000
     30 C30         0.1883    1.5248   49.2494 C.2     1  ZINC000438893617   -0.2100
     31 C31         0.7642    2.2029   50.2432 C.2     1  ZINC000438893617   -0.1300
     32 H32         0.6361    4.8007   51.8210 H       1  ZINC000438893617    0.0700
     33 H33        -0.4360    3.8807   52.9038 H       1  ZINC000438893617    0.0700
     34 H34         1.2344    3.3311   52.6276 H       1  ZINC000438893617    0.0700
     35 H35        -2.6815    2.1493   52.9138 H       1  ZINC000438893617    0.1100
     36 H36        -3.4469    3.7786   53.3154 H       1  ZINC000438893617    0.1100
     37 H37        -7.0111    1.6005   50.3714 H       1  ZINC000438893617    0.0800
     38 H38        -5.5947    1.5015   51.4498 H       1  ZINC000438893617    0.1000
     39 H39        -7.8032    0.7236   52.4862 H       1  ZINC000438893617    0.1100
     40 H40        -6.9481    1.9955   53.3973 H       1  ZINC000438893617    0.0700
     41 H41       -12.3946    1.4874   51.5310 H       1  ZINC000438893617    0.0800
     42 H42       -12.4078    1.7339   53.2938 H       1  ZINC000438893617    0.0700
     43 H43       -14.4974    2.5799   52.2610 H       1  ZINC000438893617    0.0800
     44 H44       -13.5517    3.1179   50.0328 H       1  ZINC000438893617    0.0600
     45 H45       -14.3894    4.5260   50.7283 H       1  ZINC000438893617    0.0700
     46 H46       -12.2052    5.1814   49.7544 H       1  ZINC000438893617    0.0800
     47 H47       -11.2915    6.3120   51.7633 H       1  ZINC000438893617    0.0600
     48 H48       -13.0694    6.3913   51.7388 H       1  ZINC000438893617    0.0700
     49 H49       -12.2371    5.7740   53.9915 H       1  ZINC000438893617    0.0700
     50 H50       -14.4081    4.8721   53.2026 H       1  ZINC000438893617    0.0700
     51 H51       -13.5837    3.7105   54.2700 H       1  ZINC000438893617    0.0600
     52 H52       -11.0879    3.5990   54.3043 H       1  ZINC000438893617    0.0700
     53 H53       -10.1342    4.6813   53.2614 H       1  ZINC000438893617    0.0700
     54 H54       -10.1156    4.3353   50.7872 H       1  ZINC000438893617    0.0700
     55 H55       -11.0560    3.0065   50.0673 H       1  ZINC000438893617    0.0800
     56 H56        -9.3851    4.5868   52.0148 H       1  ZINC000438893617    0.1300
     57 H57        -7.9687    4.4878   53.0933 H       1  ZINC000438893617    0.0800
     58 H58        -7.1777    5.3656   50.9852 H       1  ZINC000438893617    0.1100
     59 H59        -8.0296    4.0934   50.0716 H       1  ZINC000438893617    0.0700
     60 H60         0.7038    0.8727   48.5600 H       1  ZINC000438893617    0.1700
     61 H61         1.8236    2.1488   50.4460 H       1  ZINC000438893617    0.1400
@<TRIPOS>BOND
     1     1     2    1
     2     1    32    1
     3     1    33    1
     4     1    34    1
     5     2    31    1
     6     2     3    2
     7     3     4    1
     8     3    29    1
     9     4     5    1
    10     4     7    1
    11     4     6    1
    12     6     7    1
    13     6    35    1
    14     6    36    1
    15     7     8    1
    16     7     9    1
    17     9    10    2
    18     9    11   am
    19    11    28    1
    20    11    12    1
    21    12    13    1
    22    12    37    1
    23    12    38    1
    24    13    14    1
    25    13    39    1
    26    13    40    1
    27    14    15   am
    28    14    27    1
    29    15    16    2
    30    15    17    1
    31    17    25    1
    32    17    26    1
    33    17    18    1
    34    18    19    1
    35    18    41    1
    36    18    42    1
    37    19    24    1
    38    19    20    1
    39    19    43    1
    40    20    21    1
    41    20    44    1
    42    20    45    1
    43    21    22    1
    44    21    26    1
    45    21    46    1
    46    22    23    1
    47    22    47    1
    48    22    48    1
    49    23    24    1
    50    23    25    1
    51    23    49    1
    52    24    50    1
    53    24    51    1
    54    25    52    1
    55    25    53    1
    56    26    54    1
    57    26    55    1
    58    27    28    1
    59    27    56    1
    60    27    57    1
    61    28    58    1
    62    28    59    1
    63    29    30    1
    64    30    31    2
    65    30    60    1
    66    31    61    1
@<TRIPOS>SUBSTRUCTURE
     1 ZINC000438893617        1 TEMP              0 ****  ****    0 ROOT


##########                                Name:    ZINC000331626032
##########                DOCK_Rotatable_Bonds:                   5
##########                         Heavy_Atoms:                  25
##########                    Molecular_Weight:              339.44
##########                DOCK_Rotatable_Bonds:                   5
##########                       Formal_Charge:        -2.16067e-07
##########                     HBond_Acceptors:                   6
##########                        HBond_Donors:                   2
##########                         Heavy_Atoms:                  25
##########                          Grid_Score:          -26.138420
##########                     Grid_vdw_energy:          -25.903572
##########                      Grid_es_energy:           -0.234848
##########           Internal_energy_repulsive:           33.357609

@<TRIPOS>MOLECULE
ZINC000331626032
 50 52 1 0 0
SMALL
USER_CHARGES


@<TRIPOS>ATOM
      1 C1        -10.9562   -0.9120   55.4367 C.3     1  ZINC000331626032   -0.2000
      2 C2        -10.8772    0.4766   54.7991 C.3     1  ZINC000331626032    0.0700
      3 H3        -10.6400    1.2151   55.5649 H       1  ZINC000331626032    0.1100
      4 C4         -9.8015    0.4843   53.7437 C.2     1  ZINC000331626032    0.5200
      5 O5         -9.6551   -0.4780   53.0201 O.2     1  ZINC000331626032   -0.5000
      6 N6         -9.0022    1.5603   53.6040 N.am    1  ZINC000331626032   -0.5800
      7 C7         -9.1789    2.7225   54.4781 C.3     1  ZINC000331626032    0.0800
      8 C8         -8.0033    1.5674   52.6241 C.ar    1  ZINC000331626032    0.1400
      9 C9         -7.0192    0.5874   52.6265 C.ar    1  ZINC000331626032   -0.1000
     10 C10        -6.0348    0.5971   51.6578 C.ar    1  ZINC000331626032   -0.1100
     11 C11        -6.0280    1.5814   50.6867 C.ar    1  ZINC000331626032   -0.1200
     12 C12        -7.0062    2.5588   50.6818 C.ar    1  ZINC000331626032   -0.1100
     13 C13        -7.9972    2.5507   51.6436 C.ar    1  ZINC000331626032   -0.1200
     14 N14       -12.1695    0.8071   54.1836 N.3     1  ZINC000331626032   -0.5100
     15 C15       -12.6422    2.1246   54.6276 C.3     1  ZINC000331626032    0.0500
     16 C16       -14.0513    2.3720   54.0845 C.3     1  ZINC000331626032   -0.1100
     17 C17       -14.0220    2.3086   52.5549 C.3     1  ZINC000331626032   -0.1100
     18 C18       -13.4804    0.9443   52.1190 C.3     1  ZINC000331626032   -0.0400
     19 H19       -14.1484    0.1582   52.4710 H       1  ZINC000331626032    0.1000
     20 C20       -13.3935    0.8946   50.6152 C.ar    1  ZINC000331626032    0.2300
     21 C21       -13.0170    2.0184   49.8970 C.ar    1  ZINC000331626032   -0.2900
     22 C22       -12.9498    1.9300   48.5152 C.ar    1  ZINC000331626032    0.1900
     23 N23       -13.2451    0.7828   47.9269 N.ar    1  ZINC000331626032   -0.5700
     24 C24       -13.6017   -0.2734   48.6432 C.ar    1  ZINC000331626032    0.5700
     25 N25       -13.9036   -1.4585   47.9949 N.pl3   1  ZINC000331626032   -0.8200
     26 N26       -13.6706   -0.2238   49.9652 N.ar    1  ZINC000331626032   -0.5700
     27 C27       -12.0878    0.7382   52.7190 C.3     1  ZINC000331626032    0.0700
     28 H28       -11.1934   -1.6504   54.6708 H       1  ZINC000331626032    0.0700
     29 H29        -9.9974   -1.1572   55.8934 H       1  ZINC000331626032    0.0800
     30 H30       -11.7343   -0.9175   56.2001 H       1  ZINC000331626032    0.0700
     31 H31        -8.5599    2.6058   55.3676 H       1  ZINC000331626032    0.0600
     32 H32        -8.8827    3.6263   53.9454 H       1  ZINC000331626032    0.0800
     33 H33       -10.2257    2.8005   54.7717 H       1  ZINC000331626032    0.0800
     34 H34        -7.0236   -0.1812   53.3852 H       1  ZINC000331626032    0.1200
     35 H35        -5.2692   -0.1647   51.6593 H       1  ZINC000331626032    0.1300
     36 H36        -5.2568    1.5869   49.9305 H       1  ZINC000331626032    0.1300
     37 H37        -6.9977    3.3266   49.9223 H       1  ZINC000331626032    0.1300
     38 H38        -8.7609    3.3144   51.6393 H       1  ZINC000331626032    0.1200
     39 H39       -12.6623    2.1551   55.7170 H       1  ZINC000331626032    0.0900
     40 H40       -11.9687    2.8966   54.2553 H       1  ZINC000331626032    0.0300
     41 H41       -14.7283    1.6085   54.4675 H       1  ZINC000331626032    0.0800
     42 H42       -14.3958    3.3565   54.4013 H       1  ZINC000331626032    0.0700
     43 H43       -15.0312    2.4412   52.1654 H       1  ZINC000331626032    0.0700
     44 H44       -13.3753    3.0971   52.1699 H       1  ZINC000331626032    0.0700
     45 H45       -12.7815    2.9431   50.4029 H       1  ZINC000331626032    0.1400
     46 H46       -12.6600    2.7876   47.9261 H       1  ZINC000331626032    0.1700
     47 H47       -13.8528   -1.5088   47.0276 H       1  ZINC000331626032    0.4100
     48 H48       -14.1660   -2.2387   48.5081 H       1  ZINC000331626032    0.4100
     49 H49       -11.4169    1.5167   52.3556 H       1  ZINC000331626032    0.0400
     50 H50       -11.7052   -0.2384   52.4222 H       1  ZINC000331626032    0.0800
@<TRIPOS>BOND
     1     1     2    1
     2     1    28    1
     3     1    29    1
     4     1    30    1
     5     2     3    1
     6     2     4    1
     7     2    14    1
     8     4     5    2
     9     4     6   am
    10     6     7    1
    11     6     8    1
    12     7    31    1
    13     7    32    1
    14     7    33    1
    15     8    13   ar
    16     8     9   ar
    17     9    10   ar
    18     9    34    1
    19    10    11   ar
    20    10    35    1
    21    11    12   ar
    22    11    36    1
    23    12    13   ar
    24    12    37    1
    25    13    38    1
    26    14    27    1
    27    14    15    1
    28    15    16    1
    29    15    39    1
    30    15    40    1
    31    16    17    1
    32    16    41    1
    33    16    42    1
    34    17    18    1
    35    17    43    1
    36    17    44    1
    37    18    19    1
    38    18    20    1
    39    18    27    1
    40    20    26   ar
    41    20    21   ar
    42    21    22   ar
    43    21    45    1
    44    22    23   ar
    45    22    46    1
    46    23    24   ar
    47    24    25    1
    48    24    26   ar
    49    25    47    1
    50    25    48    1
    51    27    49    1
    52    27    50    1
@<TRIPOS>SUBSTRUCTURE
     1 ZINC000331626032        1 TEMP              0 ****  ****    0 ROOT


##########                                Name:    ZINC001176298561
##########                DOCK_Rotatable_Bonds:                   6
##########                         Heavy_Atoms:                  23
##########                    Molecular_Weight:             337.781
##########                DOCK_Rotatable_Bonds:                   6
##########                       Formal_Charge:          -0.0100003
##########                     HBond_Acceptors:                   7
##########                        HBond_Donors:                   2
##########                         Heavy_Atoms:                  23
##########                          Grid_Score:          -26.122770
##########                     Grid_vdw_energy:          -25.272341
##########                      Grid_es_energy:           -0.850429
##########           Internal_energy_repulsive:           10.362773

@<TRIPOS>MOLECULE
ZINC001176298561
 40 41 1 0 0
SMALL
USER_CHARGES


@<TRIPOS>ATOM
      1 C1         -8.3625    2.1959   55.9005 C.3     1  ZINC001176298561   -0.1700
      2 C2         -7.7978    3.1085   54.8100 C.3     1  ZINC001176298561    0.1100
      3 N3         -8.8458    3.4044   53.8300 N.am    1  ZINC001176298561   -0.6100
      4 C4        -10.0114    4.2005   54.2218 C.3     1  ZINC001176298561    0.0900
      5 C5         -9.7216    5.6830   53.9784 C.3     1  ZINC001176298561   -0.1800
      6 C6         -8.7374    2.9442   52.5679 C.2     1  ZINC001176298561    0.5600
      7 O7         -9.6069    3.1896   51.7547 O.2     1  ZINC001176298561   -0.5300
      8 C8         -7.5608    2.1406   52.1723 C.ar    1  ZINC001176298561   -0.0600
      9 C9         -7.4882    0.7900   52.5161 C.ar    1  ZINC001176298561   -0.1900
     10 C10        -6.3868    0.0407   52.1451 C.ar    1  ZINC001176298561    0.1400
     11 F11        -6.3183   -1.2668   52.4783 F       1  ZINC001176298561   -0.1300
     12 C12        -5.3548    0.6265   51.4328 C.ar    1  ZINC001176298561   -0.1800
     13 C13        -5.4195    1.9712   51.0865 C.ar    1  ZINC001176298561    0.2400
     14 N14        -4.3758    2.5580   50.3673 N.pl3   1  ZINC001176298561   -0.6700
     15 C15        -3.0864    2.5977   50.9113 C.2     1  ZINC001176298561    0.0400
     16 C16        -2.8811    3.0937   52.1698 C.2     1  ZINC001176298561   -0.0300
     17 C17        -1.5790    3.1216   52.6915 C.2     1  ZINC001176298561   -0.1300
     18 Cl18       -1.2964    3.7469   54.2861 Cl      1  ZINC001176298561   -0.0400
     19 C19        -0.5434    2.6610   51.9522 C.2     1  ZINC001176298561    0.1400
     20 N20        -0.7461    2.1673   50.7003 N.am    1  ZINC001176298561   -0.6000
     21 C21        -1.9831    2.1208   50.1699 C.2     1  ZINC001176298561    0.5100
     22 O22        -2.1493    1.6749   49.0458 O.2     1  ZINC001176298561   -0.5200
     23 C23        -6.5231    2.7288   51.4496 C.ar    1  ZINC001176298561   -0.1300
     24 H24        -7.5827    1.9758   56.6298 H       1  ZINC001176298561    0.0700
     25 H25        -9.1941    2.6953   56.3975 H       1  ZINC001176298561    0.0600
     26 H26        -8.7127    1.2666   55.4514 H       1  ZINC001176298561    0.0600
     27 H27        -7.4476    4.0379   55.2592 H       1  ZINC001176298561    0.0800
     28 H28        -6.9660    2.6091   54.3130 H       1  ZINC001176298561    0.0900
     29 H29       -10.8746    3.8970   53.6294 H       1  ZINC001176298561    0.0900
     30 H30       -10.2221    4.0403   55.2792 H       1  ZINC001176298561    0.0800
     31 H31        -9.1761    5.7976   53.0417 H       1  ZINC001176298561    0.0700
     32 H32       -10.6614    6.2323   53.9211 H       1  ZINC001176298561    0.0700
     33 H33        -9.1211    6.0754   54.7990 H       1  ZINC001176298561    0.0600
     34 H34        -8.2918    0.3302   53.0722 H       1  ZINC001176298561    0.1500
     35 H35        -4.4965    0.0371   51.1456 H       1  ZINC001176298561    0.1300
     36 H36        -4.5444    2.9381   49.4909 H       1  ZINC001176298561    0.4200
     37 H37        -3.7118    3.4599   52.7548 H       1  ZINC001176298561    0.1500
     38 H38         0.4561    2.6857   52.3605 H       1  ZINC001176298561    0.1800
     39 H39         0.0089    1.8419   50.1854 H       1  ZINC001176298561    0.4300
     40 H40        -6.5746    3.7737   51.1811 H       1  ZINC001176298561    0.1400
@<TRIPOS>BOND
     1     1     2    1
     2     1    24    1
     3     1    25    1
     4     1    26    1
     5     2     3    1
     6     2    27    1
     7     2    28    1
     8     3     4    1
     9     3     6   am
    10     4     5    1
    11     4    29    1
    12     4    30    1
    13     5    31    1
    14     5    32    1
    15     5    33    1
    16     6     7    2
    17     6     8    1
    18     8    23   ar
    19     8     9   ar
    20     9    10   ar
    21     9    34    1
    22    10    11    1
    23    10    12   ar
    24    12    13   ar
    25    12    35    1
    26    13    14    1
    27    13    23   ar
    28    14    15    1
    29    14    36    1
    30    15    21    1
    31    15    16    2
    32    16    17    1
    33    16    37    1
    34    17    18    1
    35    17    19    2
    36    19    20    1
    37    19    38    1
    38    20    21   am
    39    20    39    1
    40    21    22    2
    41    23    40    1
@<TRIPOS>SUBSTRUCTURE
     1 ZINC001176298561        1 TEMP              0 ****  ****    0 ROOT


##########                                Name:    ZINC000277311370
##########                DOCK_Rotatable_Bonds:                   5
##########                         Heavy_Atoms:                  17
##########                    Molecular_Weight:             361.036
##########                DOCK_Rotatable_Bonds:                   5
##########                       Formal_Charge:        -7.45058e-08
##########                     HBond_Acceptors:                   4
##########                        HBond_Donors:                   1
##########                         Heavy_Atoms:                  17
##########                          Grid_Score:          -26.055527
##########                     Grid_vdw_energy:          -25.284039
##########                      Grid_es_energy:           -0.771489
##########           Internal_energy_repulsive:           12.033043

@<TRIPOS>MOLECULE
ZINC000277311370
 28 28 1 0 0
SMALL
USER_CHARGES


@<TRIPOS>ATOM
      1 C1         -6.8979    3.3898   52.9244 C.3     1  ZINC000277311370   -0.1500
      2 C2         -6.6616    1.8785   52.9580 C.3     1  ZINC000277311370   -0.1000
      3 C3         -8.0077    1.1527   53.0016 C.3     1  ZINC000277311370   -0.1600
      4 C4         -5.8938    1.4544   51.7044 C.3     1  ZINC000277311370    0.2500
      5 H5         -6.2328    2.0453   50.8535 H       1  ZINC000277311370    0.1400
      6 C6         -6.1374    0.0272   51.4391 C.1     1  ZINC000277311370    0.1900
      7 N7         -6.3254   -1.0742   51.2343 N.1     1  ZINC000277311370   -0.4100
      8 N8         -4.4604    1.6749   51.9119 N.am    1  ZINC000277311370   -0.7000
      9 C9         -3.8361    2.6887   51.2801 C.2     1  ZINC000277311370    0.5700
     10 O10        -4.4626    3.4208   50.5397 O.2     1  ZINC000277311370   -0.4900
     11 C11        -2.3867    2.9104   51.4884 C.ar    1  ZINC000277311370    0.1100
     12 N12        -1.5204    2.5129   50.5643 N.ar    1  ZINC000277311370   -0.4300
     13 C13        -0.2250    2.6915   50.7103 C.ar    1  ZINC000277311370    0.1300
     14 Br14        0.9560    2.1019   49.3562 Br      1  ZINC000277311370    0.0200
     15 C15         0.2862    3.3065   51.8437 C.ar    1  ZINC000277311370   -0.1100
     16 C16        -0.5825    3.7369   52.8332 C.ar    1  ZINC000277311370   -0.0400
     17 C17        -1.9437    3.5400   52.6505 C.ar    1  ZINC000277311370   -0.0900
     18 Br18       -3.1795    4.1056   53.9654 Br      1  ZINC000277311370    0.0300
     19 H19        -7.4449    3.6920   53.8174 H       1  ZINC000277311370    0.0700
     20 H20        -5.9389    3.9069   52.8933 H       1  ZINC000277311370    0.0700
     21 H21        -7.4782    3.6472   52.0384 H       1  ZINC000277311370    0.0600
     22 H22        -6.0812    1.6212   53.8441 H       1  ZINC000277311370    0.1000
     23 H23        -8.5881    1.4100   52.1156 H       1  ZINC000277311370    0.0600
     24 H24        -7.8394    0.0760   53.0254 H       1  ZINC000277311370    0.0600
     25 H25        -8.5548    1.4549   53.8947 H       1  ZINC000277311370    0.0700
     26 H26        -3.9606    1.0912   52.5038 H       1  ZINC000277311370    0.4200
     27 H27         1.3511    3.4482   51.9538 H       1  ZINC000277311370    0.1600
     28 H28        -0.2089    4.2185   53.7248 H       1  ZINC000277311370    0.1700
@<TRIPOS>BOND
     1     1     2    1
     2     1    19    1
     3     1    20    1
     4     1    21    1
     5     2     3    1
     6     2     4    1
     7     2    22    1
     8     3    23    1
     9     3    24    1
    10     3    25    1
    11     4     5    1
    12     4     6    1
    13     4     8    1
    14     6     7    3
    15     8     9   am
    16     8    26    1
    17     9    10    2
    18     9    11    1
    19    11    17   ar
    20    11    12   ar
    21    12    13   ar
    22    13    14    1
    23    13    15   ar
    24    15    16   ar
    25    15    27    1
    26    16    17   ar
    27    16    28    1
    28    17    18    1
@<TRIPOS>SUBSTRUCTURE
     1 ZINC000277311370        1 TEMP              0 ****  ****    0 ROOT


##########                                Name:    ZINC000609484313
##########                DOCK_Rotatable_Bonds:                  10
##########                         Heavy_Atoms:                  26
##########                    Molecular_Weight:             361.487
##########                DOCK_Rotatable_Bonds:                  10
##########                       Formal_Charge:          -0.0200004
##########                     HBond_Acceptors:                   7
##########                        HBond_Donors:                   1
##########                         Heavy_Atoms:                  26
##########                          Grid_Score:          -26.053997
##########                     Grid_vdw_energy:          -25.409267
##########                      Grid_es_energy:           -0.644729
##########           Internal_energy_repulsive:           44.578850

@<TRIPOS>MOLECULE
ZINC000609484313
 57 58 1 0 0
SMALL
USER_CHARGES


@<TRIPOS>ATOM
      1 C1          3.6142    4.3696   54.7112 C.3     1  ZINC000609484313   -0.1500
      2 C2          2.4268    3.5340   54.2287 C.3     1  ZINC000609484313   -0.1300
      3 C3          1.9999    4.0096   52.8385 C.3     1  ZINC000609484313   -0.1100
      4 C4          0.8337    3.1526   52.3422 C.3     1  ZINC000609484313   -0.1100
      5 C5          0.3726    3.6614   50.9749 C.3     1  ZINC000609484313    0.0800
      6 H6          0.5681    4.7311   50.9004 H       1  ZINC000609484313    0.1200
      7 C7          1.1251    2.9364   49.8891 C.2     1  ZINC000609484313    0.4900
      8 O8          0.5998    2.7416   48.8134 O.2     1  ZINC000609484313   -0.5000
      9 N9          2.3818    2.5042   50.1134 N.am    1  ZINC000609484313   -0.6300
     10 C10         3.0790    1.8345   49.1077 C.2     1  ZINC000609484313    0.2400
     11 N11         4.2956    1.3613   49.1777 N.2     1  ZINC000609484313   -0.3900
     12 O12         4.6247    0.8313   48.1418 O.3     1  ZINC000609484313    0.1000
     13 C13         3.6478    0.8834   47.2248 C.2     1  ZINC000609484313   -0.0200
     14 C14         3.6968    0.3292   45.8243 C.3     1  ZINC000609484313   -0.0800
     15 C15         2.6074    1.5246   47.8043 C.2     1  ZINC000609484313   -0.2300
     16 N16        -1.0675    3.4150   50.8210 N.3     1  ZINC000609484313   -0.5000
     17 C17        -1.8533    4.3776   51.6053 C.3     1  ZINC000609484313    0.0400
     18 C18        -3.3442    4.1384   51.3561 C.3     1  ZINC000609484313    0.0500
     19 N19        -3.6850    2.7580   51.7276 N.3     1  ZINC000609484313   -0.5100
     20 C20        -5.1250    2.5116   51.5737 C.3     1  ZINC000609484313    0.1800
     21 H21        -5.4604    2.9048   50.6140 H       1  ZINC000609484313    0.1200
     22 C22        -5.3836    1.0634   51.6280 C.1     1  ZINC000609484313    0.1700
     23 N23        -5.5831   -0.0541   51.6700 N.1     1  ZINC000609484313   -0.4200
     24 C24        -5.8852    3.2081   52.7040 C.3     1  ZINC000609484313   -0.0800
     25 C25        -6.7027    4.3673   52.1303 C.3     1  ZINC000609484313   -0.1400
     26 C26        -6.8246    2.2069   53.3795 C.3     1  ZINC000609484313   -0.1500
     27 C27        -2.8992    1.7953   50.9432 C.3     1  ZINC000609484313    0.0500
     28 C28        -1.4082    2.0345   51.1925 C.3     1  ZINC000609484313    0.0400
     29 H29         4.4460    4.2540   54.0164 H       1  ZINC000609484313    0.0500
     30 H30         3.3242    5.4192   54.7594 H       1  ZINC000609484313    0.0500
     31 H31         3.9183    4.0307   55.7016 H       1  ZINC000609484313    0.0500
     32 H32         2.7168    2.4844   54.1805 H       1  ZINC000609484313    0.0600
     33 H33         1.5949    3.6496   54.9235 H       1  ZINC000609484313    0.0600
     34 H34         1.6877    5.0526   52.8913 H       1  ZINC000609484313    0.0800
     35 H35         2.8389    3.9158   52.1489 H       1  ZINC000609484313    0.0600
     36 H36         1.1568    2.1154   52.2538 H       1  ZINC000609484313    0.0700
     37 H37         0.0082    3.2167   53.0510 H       1  ZINC000609484313    0.0800
     38 H38         2.8015    2.6589   50.9741 H       1  ZINC000609484313    0.4200
     39 H39         4.6675   -0.1354   45.6513 H       1  ZINC000609484313    0.0800
     40 H40         2.9103   -0.4152   45.7004 H       1  ZINC000609484313    0.0900
     41 H41         3.5481    1.1375   45.1083 H       1  ZINC000609484313    0.0900
     42 H42         1.6441    1.7541   47.3735 H       1  ZINC000609484313    0.1900
     43 H43        -1.6361    4.2463   52.6653 H       1  ZINC000609484313    0.0800
     44 H44        -1.5923    5.3920   51.3032 H       1  ZINC000609484313    0.0800
     45 H45        -3.9298    4.8324   51.9591 H       1  ZINC000609484313    0.0900
     46 H46        -3.5664    4.2963   50.3007 H       1  ZINC000609484313    0.0400
     47 H47        -5.1754    3.5918   53.4368 H       1  ZINC000609484313    0.0800
     48 H48        -7.4126    3.9835   51.3975 H       1  ZINC000609484313    0.0600
     49 H49        -7.2443    4.8635   52.9356 H       1  ZINC000609484313    0.0500
     50 H50        -6.0335    5.0805   51.6491 H       1  ZINC000609484313    0.0700
     51 H51        -7.4331    2.7235   54.1217 H       1  ZINC000609484313    0.0700
     52 H52        -7.4730    1.7540   52.6296 H       1  ZINC000609484313    0.0600
     53 H53        -6.2368    1.4301   53.8685 H       1  ZINC000609484313    0.0500
     54 H54        -3.1602    0.7810   51.2452 H       1  ZINC000609484313    0.0900
     55 H55        -3.1164    1.9266   49.8831 H       1  ZINC000609484313    0.0400
     56 H56        -0.8228    1.3406   50.5894 H       1  ZINC000609484313    0.0800
     57 H57        -1.1861    1.8766   52.2478 H       1  ZINC000609484313    0.0800
@<TRIPOS>BOND
     1     1     2    1
     2     1    29    1
     3     1    30    1
     4     1    31    1
     5     2     3    1
     6     2    32    1
     7     2    33    1
     8     3     4    1
     9     3    34    1
    10     3    35    1
    11     4     5    1
    12     4    36    1
    13     4    37    1
    14     5     6    1
    15     5     7    1
    16     5    16    1
    17     7     8    2
    18     7     9   am
    19     9    10    1
    20     9    38    1
    21    10    15    1
    22    10    11    2
    23    11    12    1
    24    12    13    1
    25    13    14    1
    26    13    15    2
    27    14    39    1
    28    14    40    1
    29    14    41    1
    30    15    42    1
    31    16    28    1
    32    16    17    1
    33    17    18    1
    34    17    43    1
    35    17    44    1
    36    18    19    1
    37    18    45    1
    38    18    46    1
    39    19    20    1
    40    19    27    1
    41    20    21    1
    42    20    22    1
    43    20    24    1
    44    22    23    3
    45    24    25    1
    46    24    26    1
    47    24    47    1
    48    25    48    1
    49    25    49    1
    50    25    50    1
    51    26    51    1
    52    26    52    1
    53    26    53    1
    54    27    28    1
    55    27    54    1
    56    27    55    1
    57    28    56    1
    58    28    57    1
@<TRIPOS>SUBSTRUCTURE
     1 ZINC000609484313        1 TEMP              0 ****  ****    0 ROOT


##########                                Name:    ZINC001708427409
##########                DOCK_Rotatable_Bonds:                   6
##########                         Heavy_Atoms:                  24
##########                    Molecular_Weight:             334.505
##########                DOCK_Rotatable_Bonds:                   6
##########                       Formal_Charge:          -0.0200006
##########                     HBond_Acceptors:                   5
##########                        HBond_Donors:                   1
##########                         Heavy_Atoms:                  24
##########                          Grid_Score:          -25.999310
##########                     Grid_vdw_energy:          -25.426840
##########                      Grid_es_energy:           -0.572469
##########           Internal_energy_repulsive:           23.538536

@<TRIPOS>MOLECULE
ZINC001708427409
 58 60 1 0 0
SMALL
USER_CHARGES


@<TRIPOS>ATOM
      1 C1        -16.4200   -1.7795   57.5359 C.3     1  ZINC001708427409   -0.1500
      2 C2        -15.6670   -0.6892   58.3009 C.3     1  ZINC001708427409   -0.1200
      3 C3        -14.6945   -1.3378   59.2880 C.3     1  ZINC001708427409    0.0000
      4 H4        -14.3506   -2.2909   58.8861 H       1  ZINC001708427409    0.0800
      5 C5        -15.4041   -1.5734   60.6228 C.3     1  ZINC001708427409   -0.1400
      6 C6        -13.5129   -0.4270   59.5010 C.2     1  ZINC001708427409    0.1800
      7 N7        -13.5588    0.8460   59.7754 N.2     1  ZINC001708427409   -0.2800
      8 N8        -12.3678    1.3146   59.8929 N.2     1  ZINC001708427409   -0.3200
      9 C9        -11.4910    0.3580   59.6983 C.2     1  ZINC001708427409    0.3600
     10 N10       -10.1116    0.4829   59.7443 N.3     1  ZINC001708427409   -0.4200
     11 C11        -9.5872    0.1181   61.0897 C.3     1  ZINC001708427409    0.0400
     12 C12        -8.2132    0.8177   61.1799 C.3     1  ZINC001708427409   -0.0900
     13 H13        -7.4154    0.1194   60.9272 H       1  ZINC001708427409    0.0900
     14 C14        -7.9969    1.3851   62.5842 C.3     1  ZINC001708427409   -0.1500
     15 C15        -8.2766    1.9648   60.1361 C.3     1  ZINC001708427409   -0.0800
     16 H16        -8.0809    2.9307   60.6016 H       1  ZINC001708427409    0.0900
     17 C17        -7.2347    1.6532   59.0614 C.3     1  ZINC001708427409   -0.1100
     18 C18        -7.4534    2.5606   57.8511 C.3     1  ZINC001708427409   -0.1200
     19 C19        -8.7999    2.2111   57.2212 C.3     1  ZINC001708427409   -0.1100
     20 C20        -9.9265    2.4295   58.2106 C.3     1  ZINC001708427409   -0.1000
     21 C21        -9.7021    1.8960   59.5945 C.3     1  ZINC001708427409    0.1000
     22 H22       -10.3349    2.4745   60.2676 H       1  ZINC001708427409    0.0600
     23 N23       -12.1942   -0.7843   59.4481 N.pl3   1  ZINC001708427409   -0.4700
     24 C24       -11.6490   -2.1155   59.1703 C.3     1  ZINC001708427409    0.0800
     25 C25       -11.5706   -2.3290   57.6574 C.3     1  ZINC001708427409    0.1200
     26 C26       -11.5003   -0.9721   56.9539 C.3     1  ZINC001708427409   -0.1800
     27 C27       -10.3196   -3.1431   57.3213 C.3     1  ZINC001708427409   -0.1500
     28 O28       -12.7316   -3.0353   57.2151 O.3     1  ZINC001708427409   -0.5400
     29 H29       -16.9758   -2.3992   58.2395 H       1  ZINC001708427409    0.0600
     30 H30       -17.1129   -1.3174   56.8327 H       1  ZINC001708427409    0.0600
     31 H31       -15.7077   -2.3985   56.9905 H       1  ZINC001708427409    0.0500
     32 H32       -15.1112   -0.0695   57.5973 H       1  ZINC001708427409    0.0700
     33 H33       -16.3793   -0.0702   58.8463 H       1  ZINC001708427409    0.0800
     34 H34       -16.2586   -2.2322   60.4688 H       1  ZINC001708427409    0.0700
     35 H35       -14.7111   -2.0354   61.3261 H       1  ZINC001708427409    0.0500
     36 H36       -15.7478   -0.6202   61.0248 H       1  ZINC001708427409    0.0700
     37 H37       -10.2531    0.4874   61.8696 H       1  ZINC001708427409    0.0600
     38 H38        -9.4689   -0.9625   61.1707 H       1  ZINC001708427409    0.0800
     39 H39        -8.0063    0.5721   63.3101 H       1  ZINC001708427409    0.0600
     40 H40        -7.0357    1.8975   62.6249 H       1  ZINC001708427409    0.0600
     41 H41        -8.7946    2.0901   62.8180 H       1  ZINC001708427409    0.0600
     42 H42        -6.2362    1.8217   59.4649 H       1  ZINC001708427409    0.0600
     43 H43        -7.3299    0.6115   58.7553 H       1  ZINC001708427409    0.0700
     44 H44        -7.4580    3.6026   58.1707 H       1  ZINC001708427409    0.0600
     45 H45        -6.6567    2.4007   57.1247 H       1  ZINC001708427409    0.0600
     46 H46        -8.9621    2.8419   56.3474 H       1  ZINC001708427409    0.0600
     47 H47        -8.7913    1.1658   56.9122 H       1  ZINC001708427409    0.0600
     48 H48       -10.1042    3.5017   58.2942 H       1  ZINC001708427409    0.0600
     49 H49       -10.8287    1.9695   57.8075 H       1  ZINC001708427409    0.0700
     50 H50       -10.6510   -2.1965   59.6010 H       1  ZINC001708427409    0.0900
     51 H51       -12.2975   -2.8729   59.6111 H       1  ZINC001708427409    0.1000
     52 H52       -10.6148   -0.4334   57.2912 H       1  ZINC001708427409    0.0700
     53 H53       -11.4446   -1.1242   55.8759 H       1  ZINC001708427409    0.0700
     54 H54       -12.3916   -0.3922   57.1933 H       1  ZINC001708427409    0.0600
     55 H55       -10.3296   -4.0749   57.8868 H       1  ZINC001708427409    0.0700
     56 H56       -10.3067   -3.3658   56.2543 H       1  ZINC001708427409    0.0700
     57 H57        -9.4310   -2.5687   57.5833 H       1  ZINC001708427409    0.0700
     58 H58       -13.5654   -2.5955   57.4308 H       1  ZINC001708427409    0.3800
@<TRIPOS>BOND
     1     1     2    1
     2     1    29    1
     3     1    30    1
     4     1    31    1
     5     2     3    1
     6     2    32    1
     7     2    33    1
     8     3     4    1
     9     3     5    1
    10     3     6    1
    11     5    34    1
    12     5    35    1
    13     5    36    1
    14     6    23    1
    15     6     7    2
    16     7     8    1
    17     8     9    2
    18     9    10    1
    19     9    23    1
    20    10    21    1
    21    10    11    1
    22    11    12    1
    23    11    37    1
    24    11    38    1
    25    12    13    1
    26    12    14    1
    27    12    15    1
    28    14    39    1
    29    14    40    1
    30    14    41    1
    31    15    16    1
    32    15    21    1
    33    15    17    1
    34    17    18    1
    35    17    42    1
    36    17    43    1
    37    18    19    1
    38    18    44    1
    39    18    45    1
    40    19    20    1
    41    19    46    1
    42    19    47    1
    43    20    21    1
    44    20    48    1
    45    20    49    1
    46    21    22    1
    47    23    24    1
    48    24    25    1
    49    24    50    1
    50    24    51    1
    51    25    26    1
    52    25    27    1
    53    25    28    1
    54    26    52    1
    55    26    53    1
    56    26    54    1
    57    27    55    1
    58    27    56    1
    59    27    57    1
    60    28    58    1
@<TRIPOS>SUBSTRUCTURE
     1 ZINC001708427409        1 TEMP              0 ****  ****    0 ROOT


##########                                Name:    ZINC001018118384
##########                DOCK_Rotatable_Bonds:                   5
##########                         Heavy_Atoms:                  25
##########                    Molecular_Weight:             347.374
##########                DOCK_Rotatable_Bonds:                   5
##########                       Formal_Charge:           0.0299997
##########                     HBond_Acceptors:                   9
##########                        HBond_Donors:                   2
##########                         Heavy_Atoms:                  25
##########                          Grid_Score:          -25.988214
##########                     Grid_vdw_energy:          -23.413008
##########                      Grid_es_energy:           -2.575207
##########           Internal_energy_repulsive:           98.520050

@<TRIPOS>MOLECULE
ZINC001018118384
 46 48 1 0 0
SMALL
USER_CHARGES


@<TRIPOS>ATOM
      1 C1        -10.3897    2.6376   53.0552 C.3     1  ZINC001018118384   -0.0700
      2 C2         -9.1479    2.8957   52.2413 C.2     1  ZINC001018118384    0.2200
      3 N3         -7.9810    2.3585   52.4518 N.2     1  ZINC001018118384   -0.4600
      4 C4         -7.1086    2.8256   51.5224 C.2     1  ZINC001018118384   -0.0700
      5 C5         -5.6844    2.4671   51.4070 C.2     1  ZINC001018118384    0.6100
      6 O6         -5.3647    1.3251   51.1370 O.2     1  ZINC001018118384   -0.5400
      7 N7         -4.7356    3.4045   51.6007 N.am    1  ZINC001018118384   -0.5900
      8 C8         -5.1060    4.7869   51.9335 C.3     1  ZINC001018118384    0.0700
      9 C9         -4.3675    5.2015   53.2099 C.3     1  ZINC001018118384    0.1300
     10 H10        -4.5582    6.2551   53.4146 H       1  ZINC001018118384    0.1100
     11 N11        -4.8421    4.3913   54.3345 N.am    1  ZINC001018118384   -0.7000
     12 C12        -5.6378    4.9414   55.2730 C.2     1  ZINC001018118384    0.6000
     13 O13        -5.9602    6.1097   55.1873 O.2     1  ZINC001018118384   -0.4900
     14 C14        -6.1193    4.1213   56.4097 C.2     1  ZINC001018118384    0.0300
     15 C15        -5.8757    2.7952   56.6105 C.2     1  ZINC001018118384   -0.2300
     16 C16        -6.5526    2.5010   57.8275 C.2     1  ZINC001018118384    0.4800
     17 O17        -6.6079    1.4241   58.3978 O.2     1  ZINC001018118384   -0.5200
     18 N18        -7.1191    3.6599   58.2194 N.am    1  ZINC001018118384   -0.4500
     19 C19        -7.9212    3.8240   59.4344 C.3     1  ZINC001018118384    0.1100
     20 O20        -6.8713    4.5471   57.4360 O.3     1  ZINC001018118384    0.0000
     21 C21        -2.8650    4.9820   53.0195 C.3     1  ZINC001018118384   -0.1300
     22 C22        -2.5930    3.4977   52.7646 C.3     1  ZINC001018118384   -0.1300
     23 C23        -3.3112    3.0623   51.4891 C.3     1  ZINC001018118384    0.1400
     24 H24        -2.8824    3.5825   50.6325 H       1  ZINC001018118384    0.0700
     25 C25        -3.1547    1.5517   51.3025 C.3     1  ZINC001018118384   -0.1400
     26 C26        -7.7912    3.6874   50.7145 C.2     1  ZINC001018118384    0.0400
     27 N27        -9.0671    3.7220   51.1660 N.pl3   1  ZINC001018118384   -0.5600
     28 H28       -10.9326    1.7927   52.6316 H       1  ZINC001018118384    0.0900
     29 H29       -10.1093    2.4105   54.0837 H       1  ZINC001018118384    0.1000
     30 H30       -11.0253    3.5230   53.0388 H       1  ZINC001018118384    0.0800
     31 H31        -4.8214    5.4485   51.1153 H       1  ZINC001018118384    0.0800
     32 H32        -6.1819    4.8474   52.0976 H       1  ZINC001018118384    0.1500
     33 H33        -4.5837    3.4589   54.4036 H       1  ZINC001018118384    0.4100
     34 H34        -5.3021    2.1232   55.9894 H       1  ZINC001018118384    0.1900
     35 H35        -7.2710    4.1010   60.2643 H       1  ZINC001018118384    0.0800
     36 H36        -8.6631    4.6069   59.2770 H       1  ZINC001018118384    0.0900
     37 H37        -8.4261    2.8862   59.6658 H       1  ZINC001018118384    0.1100
     38 H38        -2.5178    5.5663   52.1675 H       1  ZINC001018118384    0.0900
     39 H39        -2.3350    5.2994   53.9175 H       1  ZINC001018118384    0.0800
     40 H40        -1.5205    3.3384   52.6523 H       1  ZINC001018118384    0.0800
     41 H41        -2.9623    2.9105   53.6053 H       1  ZINC001018118384    0.0600
     42 H42        -3.5707    1.0340   52.1667 H       1  ZINC001018118384    0.0700
     43 H43        -3.6848    1.2401   50.4024 H       1  ZINC001018118384    0.0800
     44 H44        -2.0975    1.3052   51.2053 H       1  ZINC001018118384    0.0400
     45 H45        -7.3915    4.2337   49.8730 H       1  ZINC001018118384    0.1900
     46 H46        -9.7918    4.2476   50.7927 H       1  ZINC001018118384    0.4300
@<TRIPOS>BOND
     1     1     2    1
     2     1    28    1
     3     1    29    1
     4     1    30    1
     5     2    27    1
     6     2     3    2
     7     3     4    1
     8     4     5    1
     9     4    26    2
    10     5     6    2
    11     5     7   am
    12     7    23    1
    13     7     8    1
    14     8     9    1
    15     8    31    1
    16     8    32    1
    17     9    10    1
    18     9    11    1
    19     9    21    1
    20    11    12   am
    21    11    33    1
    22    12    13    2
    23    12    14    1
    24    14    20    1
    25    14    15    2
    26    15    16    1
    27    15    34    1
    28    16    17    2
    29    16    18   am
    30    18    19    1
    31    18    20    1
    32    19    35    1
    33    19    36    1
    34    19    37    1
    35    21    22    1
    36    21    38    1
    37    21    39    1
    38    22    23    1
    39    22    40    1
    40    22    41    1
    41    23    24    1
    42    23    25    1
    43    25    42    1
    44    25    43    1
    45    25    44    1
    46    26    27    1
    47    26    45    1
    48    27    46    1
@<TRIPOS>SUBSTRUCTURE
     1 ZINC001018118384        1 TEMP              0 ****  ****    0 ROOT


##########                                Name:    ZINC000004040798
##########                DOCK_Rotatable_Bonds:                   3
##########                         Heavy_Atoms:                  22
##########                    Molecular_Weight:             361.151
##########                DOCK_Rotatable_Bonds:                   3
##########                       Formal_Charge:           0.0200003
##########                     HBond_Acceptors:                   6
##########                        HBond_Donors:                   1
##########                         Heavy_Atoms:                  22
##########                          Grid_Score:          -25.986973
##########                     Grid_vdw_energy:          -24.508638
##########                      Grid_es_energy:           -1.478334
##########           Internal_energy_repulsive:            2.513628

@<TRIPOS>MOLECULE
ZINC000004040798
 31 33 1 0 0
SMALL
USER_CHARGES


@<TRIPOS>ATOM
      1 O1         -2.4771    1.8766   49.3155 O.2     1  ZINC000004040798   -0.4800
      2 C2         -1.7009    1.9984   50.2444 C.2     1  ZINC000004040798    0.6100
      3 N3         -2.1697    2.1526   51.4986 N.am    1  ZINC000004040798   -0.6600
      4 C4         -3.5484    2.1783   51.7315 C.ar    1  ZINC000004040798    0.2300
      5 C5         -4.3132    1.0411   51.5080 C.ar    1  ZINC000004040798   -0.1300
      6 C6         -5.6749    1.0697   51.7388 C.ar    1  ZINC000004040798   -0.0100
      7 C7         -6.2769    2.2289   52.1920 C.ar    1  ZINC000004040798   -0.0600
      8 N8         -7.7363    2.2554   52.4382 N.pl3   1  ZINC000004040798    0.0300
      9 O9         -8.4054    1.2568   52.2415 O.2     1  ZINC000004040798   -0.1500
     10 O10        -8.2681    3.2759   52.8375 O.2     1  ZINC000004040798   -0.1500
     11 C11        -5.5187    3.3636   52.4164 C.ar    1  ZINC000004040798    0.0000
     12 C12        -4.1555    3.3406   52.1926 C.ar    1  ZINC000004040798   -0.1400
     13 Br13       -3.1193    4.8923   52.4996 Br      1  ZINC000004040798    0.0000
     14 C14        -0.2523    1.9714   49.9997 C.2     1  ZINC000004040798   -0.0500
     15 C15         0.7043    2.1166   50.9530 C.2     1  ZINC000004040798   -0.0800
     16 C16         1.9873    2.0228   50.2572 C.ar    1  ZINC000004040798   -0.1500
     17 C17         3.3220    2.0902   50.6629 C.ar    1  ZINC000004040798   -0.0500
     18 C18         4.3186    1.9608   49.7368 C.ar    1  ZINC000004040798   -0.1400
     19 C19         4.0128    1.7636   48.3974 C.ar    1  ZINC000004040798   -0.0700
     20 C20         2.7021    1.6941   47.9767 C.ar    1  ZINC000004040798   -0.1100
     21 C21         1.6713    1.8224   48.9003 C.ar    1  ZINC000004040798    0.0800
     22 O22         0.3285    1.7928   48.7947 O.3     1  ZINC000004040798   -0.1900
     23 H23        -1.5507    2.2456   52.2397 H       1  ZINC000004040798    0.4300
     24 H24        -3.8439    0.1352   51.1535 H       1  ZINC000004040798    0.1800
     25 H25        -6.2701    0.1856   51.5647 H       1  ZINC000004040798    0.1700
     26 H26        -5.9920    4.2675   52.7705 H       1  ZINC000004040798    0.1700
     27 H27         0.5490    2.2708   52.0107 H       1  ZINC000004040798    0.1800
     28 H28         3.5654    2.2442   51.7037 H       1  ZINC000004040798    0.1400
     29 H29         5.3511    2.0128   50.0492 H       1  ZINC000004040798    0.1400
     30 H30         4.8109    1.6638   47.6766 H       1  ZINC000004040798    0.1400
     31 H31         2.4764    1.5400   46.9319 H       1  ZINC000004040798    0.1400
@<TRIPOS>BOND
     1     1     2    2
     2     2     3   am
     3     2    14    1
     4     3     4    1
     5     3    23    1
     6     4    12   ar
     7     4     5   ar
     8     5     6   ar
     9     5    24    1
    10     6     7   ar
    11     6    25    1
    12     7     8    1
    13     7    11   ar
    14     8     9    2
    15     8    10    2
    16    11    12   ar
    17    11    26    1
    18    12    13    1
    19    14    22    1
    20    14    15    2
    21    15    16    1
    22    15    27    1
    23    16    21   ar
    24    16    17   ar
    25    17    18   ar
    26    17    28    1
    27    18    19   ar
    28    18    29    1
    29    19    20   ar
    30    19    30    1
    31    20    21   ar
    32    20    31    1
    33    21    22    1
@<TRIPOS>SUBSTRUCTURE
     1 ZINC000004040798        1 TEMP              0 ****  ****    0 ROOT


##########                                Name:    ZINC001122903793
##########                DOCK_Rotatable_Bonds:                   4
##########                         Heavy_Atoms:                  25
##########                    Molecular_Weight:             399.968
##########                DOCK_Rotatable_Bonds:                   4
##########                       Formal_Charge:           0.0100003
##########                     HBond_Acceptors:                   9
##########                        HBond_Donors:                   0
##########                         Heavy_Atoms:                  25
##########                          Grid_Score:          -25.982187
##########                     Grid_vdw_energy:          -26.107212
##########                      Grid_es_energy:            0.125024
##########           Internal_energy_repulsive:           24.022547

@<TRIPOS>MOLECULE
ZINC001122903793
 47 50 1 0 0
SMALL
USER_CHARGES


@<TRIPOS>ATOM
      1 C1         -1.1427    4.6166   54.6552 C.3     1  ZINC001122903793   -0.1400
      2 C2         -1.9415    3.7349   53.6931 C.3     1  ZINC001122903793   -0.0400
      3 H3         -2.4068    2.9184   54.2454 H       1  ZINC001122903793    0.1000
      4 S4         -0.8321    3.0579   52.4205 S.3     1  ZINC001122903793   -0.2500
      5 C5         -2.0099    2.2971   51.2617 C.3     1  ZINC001122903793   -0.0800
      6 C6         -3.0796    3.3347   50.9044 C.3     1  ZINC001122903793    0.0700
      7 N7         -3.8148    3.7267   52.1089 N.3     1  ZINC001122903793   -0.4800
      8 C8         -5.0145    4.3370   51.7818 C.2     1  ZINC001122903793    0.3700
      9 N9         -5.1655    5.4053   51.0343 N.2     1  ZINC001122903793   -0.2900
     10 N10        -6.4116    5.7026   50.9333 N.2     1  ZINC001122903793   -0.2400
     11 C11        -7.1348    4.8397   51.6122 C.2     1  ZINC001122903793    0.2600
     12 C12        -8.6010    4.8379   51.7440 C.2     1  ZINC001122903793   -0.1600
     13 C13        -9.4464    5.7817   51.2664 C.2     1  ZINC001122903793    0.1600
     14 Cl14       -8.9029    7.1831   50.3979 Cl      1  ZINC001122903793    0.0300
     15 N15       -10.7145    5.5445   51.5179 N.2     1  ZINC001122903793   -0.4600
     16 C16       -10.9973    4.4679   52.1732 C.2     1  ZINC001122903793    0.0300
     17 S17        -9.5702    3.6032   52.5445 S.3     1  ZINC001122903793    0.2200
     18 N18        -6.2609    3.9352   52.1725 N.pl3   1  ZINC001122903793   -0.4600
     19 C19        -6.5966    2.7863   53.0174 C.3     1  ZINC001122903793    0.1100
     20 C20        -6.9653    1.5935   52.1331 C.3     1  ZINC001122903793    0.0700
     21 H21        -7.7943    1.8533   51.4748 H       1  ZINC001122903793    0.0800
     22 C22        -5.7389    1.1416   51.3009 C.3     1  ZINC001122903793   -0.1500
     23 C23        -6.0981   -0.3448   51.0298 C.3     1  ZINC001122903793   -0.1500
     24 C24        -6.8371   -0.7448   52.3249 C.3     1  ZINC001122903793    0.0500
     25 O25        -7.3094    0.4589   52.9442 O.3     1  ZINC001122903793   -0.3700
     26 C26        -3.0238    4.5734   53.0046 C.3     1  ZINC001122903793    0.1000
     27 H27        -2.5487    5.3667   52.4274 H       1  ZINC001122903793    0.0800
     28 C28        -3.9415    5.1929   54.0605 C.3     1  ZINC001122903793   -0.1500
     29 H29        -1.8110    5.0264   55.4125 H       1  ZINC001122903793    0.0800
     30 H30        -0.3692    4.0193   55.1381 H       1  ZINC001122903793    0.0700
     31 H31        -0.6786    5.4320   54.1004 H       1  ZINC001122903793    0.0700
     32 H32        -1.4855    1.9856   50.3584 H       1  ZINC001122903793    0.1200
     33 H33        -2.4800    1.4334   51.7318 H       1  ZINC001122903793    0.0900
     34 H34        -2.6017    4.2128   50.4700 H       1  ZINC001122903793    0.0700
     35 H35        -3.7726    2.9058   50.1806 H       1  ZINC001122903793    0.0900
     36 H36       -11.9950    4.1559   52.4444 H       1  ZINC001122903793    0.2100
     37 H37        -5.7379    2.5277   53.6369 H       1  ZINC001122903793    0.1200
     38 H38        -7.4423    3.0401   53.6564 H       1  ZINC001122903793    0.1000
     39 H39        -5.6668    1.7043   50.3702 H       1  ZINC001122903793    0.0900
     40 H40        -4.8192    1.2241   51.8801 H       1  ZINC001122903793    0.0800
     41 H41        -6.7554   -0.4335   50.1649 H       1  ZINC001122903793    0.0800
     42 H42        -5.1970   -0.9436   50.8966 H       1  ZINC001122903793    0.0900
     43 H43        -7.6813   -1.3911   52.0844 H       1  ZINC001122903793    0.0700
     44 H44        -6.1525   -1.2631   52.9962 H       1  ZINC001122903793    0.0700
     45 H45        -4.4194    4.4005   54.6367 H       1  ZINC001122903793    0.0600
     46 H46        -3.3539    5.8234   54.7279 H       1  ZINC001122903793    0.0800
     47 H47        -4.7051    5.7961   53.5695 H       1  ZINC001122903793    0.0600
@<TRIPOS>BOND
     1     1     2    1
     2     1    29    1
     3     1    30    1
     4     1    31    1
     5     2     3    1
     6     2    26    1
     7     2     4    1
     8     4     5    1
     9     5     6    1
    10     5    32    1
    11     5    33    1
    12     6     7    1
    13     6    34    1
    14     6    35    1
    15     7     8    1
    16     7    26    1
    17     8    18    1
    18     8     9    2
    19     9    10    1
    20    10    11    2
    21    11    12    1
    22    11    18    1
    23    12    17    1
    24    12    13    2
    25    13    14    1
    26    13    15    1
    27    15    16    2
    28    16    17    1
    29    16    36    1
    30    18    19    1
    31    19    20    1
    32    19    37    1
    33    19    38    1
    34    20    21    1
    35    20    25    1
    36    20    22    1
    37    22    23    1
    38    22    39    1
    39    22    40    1
    40    23    24    1
    41    23    41    1
    42    23    42    1
    43    24    25    1
    44    24    43    1
    45    24    44    1
    46    26    27    1
    47    26    28    1
    48    28    45    1
    49    28    46    1
    50    28    47    1
@<TRIPOS>SUBSTRUCTURE
     1 ZINC001122903793        1 TEMP              0 ****  ****    0 ROOT


##########                                Name:    ZINC000616491533
##########                DOCK_Rotatable_Bonds:                   4
##########                         Heavy_Atoms:                  27
##########                    Molecular_Weight:             375.418
##########                DOCK_Rotatable_Bonds:                   4
##########                       Formal_Charge:           0.0299996
##########                     HBond_Acceptors:                   7
##########                        HBond_Donors:                   0
##########                         Heavy_Atoms:                  27
##########                          Grid_Score:          -25.937164
##########                     Grid_vdw_energy:          -25.411419
##########                      Grid_es_energy:           -0.525745
##########           Internal_energy_repulsive:           12.242256

@<TRIPOS>MOLECULE
ZINC000616491533
 50 53 1 0 0
SMALL
USER_CHARGES


@<TRIPOS>ATOM
      1 C1         -8.9292    3.0222   58.1526 C.3     1  ZINC000616491533   -0.1700
      2 C2         -8.2424    1.7339   58.6102 C.3     1  ZINC000616491533    0.1400
      3 H3         -7.4215    1.4917   57.9351 H       1  ZINC000616491533    0.0800
      4 C4         -7.7059    1.9071   60.0484 C.3     1  ZINC000616491533   -0.1200
      5 C5         -8.8078    1.2523   60.9073 C.3     1  ZINC000616491533   -0.0700
      6 C6         -9.2901    0.0967   60.0098 C.3     1  ZINC000616491533    0.0900
      7 N7         -9.2140    0.6299   58.6325 N.am    1  ZINC000616491533   -0.6100
      8 C8         -9.9201    0.1800   57.5764 C.2     1  ZINC000616491533    0.6100
      9 O9         -9.7788    0.6982   56.4852 O.2     1  ZINC000616491533   -0.5200
     10 C10       -10.8637   -0.9401   57.7437 C.2     1  ZINC000616491533   -0.2400
     11 C11       -12.2031   -0.8424   58.0639 C.2     1  ZINC000616491533    0.0700
     12 C12       -12.9719    0.4305   58.3076 C.3     1  ZINC000616491533    0.3400
     13 F13       -12.3301    1.4936   57.6632 F       1  ZINC000616491533   -0.1900
     14 F14       -14.2699    0.2951   57.8036 F       1  ZINC000616491533   -0.1600
     15 N15       -12.6956   -2.0933   58.1178 N.pl3   1  ZINC000616491533   -0.2900
     16 C16       -14.0213   -2.4398   58.4127 C.ar    1  ZINC000616491533    0.1300
     17 C17       -14.8295   -2.9971   57.4309 C.ar    1  ZINC000616491533   -0.1000
     18 C18       -16.1354   -3.3376   57.7246 C.ar    1  ZINC000616491533   -0.1000
     19 C19       -16.6383   -3.1235   58.9948 C.ar    1  ZINC000616491533   -0.1000
     20 C20       -15.8359   -2.5686   59.9747 C.ar    1  ZINC000616491533   -0.1000
     21 C21       -14.5272   -2.2319   59.6889 C.ar    1  ZINC000616491533   -0.0900
     22 N22       -11.6605   -2.9898   57.8297 N.2     1  ZINC000616491533   -0.2600
     23 C23       -10.5678   -2.3146   57.6004 C.2     1  ZINC000616491533    0.0700
     24 C24        -8.2277    0.7179   62.2088 C.3     1  ZINC000616491533   -0.1400
     25 C25        -9.3552    0.1167   63.0553 C.3     1  ZINC000616491533    0.0600
     26 O26       -10.3668    1.1045   63.2639 O.3     1  ZINC000616491533   -0.3800
     27 C27       -10.9901    1.5694   62.0649 C.3     1  ZINC000616491533    0.0600
     28 C28        -9.9375    2.2367   61.1727 C.3     1  ZINC000616491533   -0.1500
     29 H29        -9.7562    3.2515   58.8246 H       1  ZINC000616491533    0.0600
     30 H30        -8.2110    3.8419   58.1675 H       1  ZINC000616491533    0.0600
     31 H31        -9.3097    2.8910   57.1396 H       1  ZINC000616491533    0.0800
     32 H32        -6.7579    1.3836   60.1723 H       1  ZINC000616491533    0.0800
     33 H33        -7.6000    2.9632   60.2963 H       1  ZINC000616491533    0.0900
     34 H34        -8.6341   -0.7670   60.1178 H       1  ZINC000616491533    0.0800
     35 H35       -10.3172   -0.1723   60.2566 H       1  ZINC000616491533    0.0800
     36 H36       -13.0167    0.6286   59.3785 H       1  ZINC000616491533    0.1400
     37 H37       -14.4376   -3.1639   56.4384 H       1  ZINC000616491533    0.1300
     38 H38       -16.7646   -3.7711   56.9613 H       1  ZINC000616491533    0.1400
     39 H39       -17.6601   -3.3898   59.2218 H       1  ZINC000616491533    0.1300
     40 H40       -16.2314   -2.4027   60.9659 H       1  ZINC000616491533    0.1400
     41 H41       -13.9009   -1.7984   60.4547 H       1  ZINC000616491533    0.1300
     42 H42        -9.6041   -2.7333   57.3508 H       1  ZINC000616491533    0.2100
     43 H43        -7.4878   -0.0517   61.9886 H       1  ZINC000616491533    0.0800
     44 H44        -7.7546    1.5320   62.7579 H       1  ZINC000616491533    0.0800
     45 H45        -9.7843   -0.7394   62.5347 H       1  ZINC000616491533    0.0500
     46 H46        -8.9562   -0.2044   64.0176 H       1  ZINC000616491533    0.1000
     47 H47       -11.4343    0.7266   61.5353 H       1  ZINC000616491533    0.0500
     48 H48       -11.7663    2.2926   62.3151 H       1  ZINC000616491533    0.1000
     49 H49        -9.5410    3.1190   61.6752 H       1  ZINC000616491533    0.0800
     50 H50       -10.3944    2.5299   60.2276 H       1  ZINC000616491533    0.0800
@<TRIPOS>BOND
     1     1     2    1
     2     1    29    1
     3     1    30    1
     4     1    31    1
     5     2     3    1
     6     2     7    1
     7     2     4    1
     8     4     5    1
     9     4    32    1
    10     4    33    1
    11     5    28    1
    12     5     6    1
    13     5    24    1
    14     6     7    1
    15     6    34    1
    16     6    35    1
    17     7     8   am
    18     8     9    2
    19     8    10    1
    20    10    23    1
    21    10    11    2
    22    11    12    1
    23    11    15    1
    24    12    13    1
    25    12    14    1
    26    12    36    1
    27    15    16    1
    28    15    22    1
    29    16    21   ar
    30    16    17   ar
    31    17    18   ar
    32    17    37    1
    33    18    19   ar
    34    18    38    1
    35    19    20   ar
    36    19    39    1
    37    20    21   ar
    38    20    40    1
    39    21    41    1
    40    22    23    2
    41    23    42    1
    42    24    25    1
    43    24    43    1
    44    24    44    1
    45    25    26    1
    46    25    45    1
    47    25    46    1
    48    26    27    1
    49    27    28    1
    50    27    47    1
    51    27    48    1
    52    28    49    1
    53    28    50    1
@<TRIPOS>SUBSTRUCTURE
     1 ZINC000616491533        1 TEMP              0 ****  ****    0 ROOT


##########                                Name:    ZINC000543429378
##########                DOCK_Rotatable_Bonds:                   6
##########                         Heavy_Atoms:                  29
##########                    Molecular_Weight:             406.408
##########                DOCK_Rotatable_Bonds:                   6
##########                       Formal_Charge:           0.0100003
##########                     HBond_Acceptors:                   9
##########                        HBond_Donors:                   1
##########                         Heavy_Atoms:                  29
##########                          Grid_Score:          -25.910643
##########                     Grid_vdw_energy:          -26.165062
##########                      Grid_es_energy:            0.254419
##########           Internal_energy_repulsive:           43.266754

@<TRIPOS>MOLECULE
ZINC000543429378
 50 53 1 0 0
SMALL
USER_CHARGES


@<TRIPOS>ATOM
      1 O1         -7.6336    0.7638   53.1443 O.2     1  ZINC000543429378   -0.5100
      2 C2         -8.0388    1.7510   52.5679 C.2     1  ZINC000543429378    0.5200
      3 N3         -9.3304    2.1176   52.6856 N.am    1  ZINC000543429378   -0.6600
      4 C4        -10.2052    1.3561   53.4684 C.ar    1  ZINC000543429378    0.1900
      5 C5         -9.8973    1.0897   54.7962 C.ar    1  ZINC000543429378   -0.1600
      6 C6        -10.7614    0.3382   55.5692 C.ar    1  ZINC000543429378   -0.0600
      7 C7        -11.9331   -0.1504   55.0239 C.ar    1  ZINC000543429378   -0.2100
      8 C8        -12.2460    0.1129   53.6974 C.ar    1  ZINC000543429378    0.1300
      9 O9        -13.3988   -0.3683   53.1624 O.3     1  ZINC000543429378   -0.3100
     10 C10       -13.6431   -0.0825   51.7837 C.3     1  ZINC000543429378    0.6000
     11 F11       -14.8562   -0.6611   51.3952 F       1  ZINC000543429378   -0.1600
     12 F12       -13.7069    1.3028   51.5989 F       1  ZINC000543429378   -0.1300
     13 F13       -12.6055   -0.6093   51.0073 F       1  ZINC000543429378   -0.1600
     14 C14       -11.3846    0.8710   52.9204 C.ar    1  ZINC000543429378   -0.1300
     15 C15        -7.0967    2.5711   51.7248 C.3     1  ZINC000543429378    0.0700
     16 H16        -7.6560    3.1098   50.9600 H       1  ZINC000543429378    0.1200
     17 C17        -6.0424    1.6463   51.0568 C.3     1  ZINC000543429378   -0.1200
     18 C18        -4.7727    2.5081   51.1335 C.3     1  ZINC000543429378   -0.1000
     19 H19        -4.7709    3.2733   50.3573 H       1  ZINC000543429378    0.0900
     20 C20        -3.4644    1.7358   51.1397 C.3     1  ZINC000543429378   -0.1100
     21 C21        -2.3333    2.7554   51.3481 C.3     1  ZINC000543429378   -0.1200
     22 C22        -2.5169    3.5367   52.6458 C.3     1  ZINC000543429378   -0.1100
     23 C23        -3.8981    4.2103   52.7038 C.3     1  ZINC000543429378   -0.0900
     24 C24        -4.9485    3.1362   52.5428 C.3     1  ZINC000543429378    0.0700
     25 H25        -4.7816    2.3559   53.2854 H       1  ZINC000543429378    0.0900
     26 N26        -6.3560    3.5328   52.5825 N.3     1  ZINC000543429378   -0.4300
     27 C27        -6.8433    3.5039   53.8777 C.ar    1  ZINC000543429378    0.5000
     28 N28        -7.8576    4.2911   54.2047 N.ar    1  ZINC000543429378   -0.5300
     29 C29        -8.3474    4.2874   55.4335 C.ar    1  ZINC000543429378    0.1800
     30 C30        -7.7865    3.4472   56.3824 C.ar    1  ZINC000543429378   -0.2500
     31 C31        -6.7267    2.6370   56.0064 C.ar    1  ZINC000543429378    0.1800
     32 N32        -6.2880    2.6856   54.7594 N.ar    1  ZINC000543429378   -0.5300
     33 H33        -9.6535    2.9094   52.2278 H       1  ZINC000543429378    0.4200
     34 H34        -8.9816    1.4698   55.2246 H       1  ZINC000543429378    0.1400
     35 H35       -10.5202    0.1319   56.6015 H       1  ZINC000543429378    0.1400
     36 H36       -12.6063   -0.7380   55.6304 H       1  ZINC000543429378    0.1400
     37 H37       -11.6264    1.0769   51.8882 H       1  ZINC000543429378    0.1500
     38 H38        -5.9209    0.7221   51.6218 H       1  ZINC000543429378    0.0800
     39 H39        -6.3088    1.4361   50.0209 H       1  ZINC000543429378    0.0900
     40 H40        -3.4654    1.0112   51.9540 H       1  ZINC000543429378    0.0700
     41 H41        -3.3314    1.2240   50.1866 H       1  ZINC000543429378    0.0700
     42 H42        -1.3800    2.2279   51.3817 H       1  ZINC000543429378    0.0600
     43 H43        -2.3237    3.4530   50.5107 H       1  ZINC000543429378    0.0600
     44 H44        -2.4170    2.8544   53.4900 H       1  ZINC000543429378    0.0600
     45 H45        -1.7437    4.3019   52.7138 H       1  ZINC000543429378    0.0700
     46 H46        -4.0255    4.7126   53.6627 H       1  ZINC000543429378    0.0700
     47 H47        -3.9935    4.9308   51.8914 H       1  ZINC000543429378    0.0700
     48 H48        -9.1741    4.9316   55.6942 H       1  ZINC000543429378    0.1600
     49 H49        -8.1668    3.4246   57.3930 H       1  ZINC000543429378    0.1400
     50 H50        -6.2670    1.9712   56.7219 H       1  ZINC000543429378    0.1600
@<TRIPOS>BOND
     1     1     2    2
     2     2     3   am
     3     2    15    1
     4     3     4    1
     5     3    33    1
     6     4    14   ar
     7     4     5   ar
     8     5     6   ar
     9     5    34    1
    10     6     7   ar
    11     6    35    1
    12     7     8   ar
    13     7    36    1
    14     8     9    1
    15     8    14   ar
    16     9    10    1
    17    10    11    1
    18    10    12    1
    19    10    13    1
    20    14    37    1
    21    15    16    1
    22    15    26    1
    23    15    17    1
    24    17    18    1
    25    17    38    1
    26    17    39    1
    27    18    19    1
    28    18    24    1
    29    18    20    1
    30    20    21    1
    31    20    40    1
    32    20    41    1
    33    21    22    1
    34    21    42    1
    35    21    43    1
    36    22    23    1
    37    22    44    1
    38    22    45    1
    39    23    24    1
    40    23    46    1
    41    23    47    1
    42    24    25    1
    43    24    26    1
    44    26    27    1
    45    27    32   ar
    46    27    28   ar
    47    28    29   ar
    48    29    30   ar
    49    29    48    1
    50    30    31   ar
    51    30    49    1
    52    31    32   ar
    53    31    50    1
@<TRIPOS>SUBSTRUCTURE
     1 ZINC000543429378        1 TEMP              0 ****  ****    0 ROOT


##########                                Name:    ZINC000163855860
##########                DOCK_Rotatable_Bonds:                   6
##########                         Heavy_Atoms:                  28
##########                    Molecular_Weight:             398.483
##########                DOCK_Rotatable_Bonds:                   6
##########                       Formal_Charge:          -0.0100004
##########                     HBond_Acceptors:                   7
##########                        HBond_Donors:                   1
##########                         Heavy_Atoms:                  28
##########                          Grid_Score:          -25.859776
##########                     Grid_vdw_energy:          -25.438585
##########                      Grid_es_energy:           -0.421190
##########           Internal_energy_repulsive:           27.870174

@<TRIPOS>MOLECULE
ZINC000163855860
 50 53 1 0 0
SMALL
USER_CHARGES


@<TRIPOS>ATOM
      1 C1        -13.8263   -0.2504   54.5314 C.3     1  ZINC000163855860   -0.1300
      2 C2        -12.9825   -1.0735   55.4703 C.ar    1  ZINC000163855860   -0.0600
      3 C3        -13.5401   -1.6023   56.6238 C.ar    1  ZINC000163855860    0.1400
      4 N4        -14.8889   -1.3726   56.9179 N.am    1  ZINC000163855860   -0.6700
      5 C5        -15.7707   -2.3911   56.8763 C.2     1  ZINC000163855860    0.5100
      6 O6        -15.3952   -3.5067   56.5841 O.2     1  ZINC000163855860   -0.5100
      7 C7        -17.2231   -2.1437   57.1930 C.3     1  ZINC000163855860   -0.1300
      8 C8        -17.3822   -1.8925   58.6939 C.3     1  ZINC000163855860   -0.1100
      9 H9        -18.3756   -2.1849   59.0343 H       1  ZINC000163855860    0.1100
     10 C10       -16.2860   -2.6313   59.4950 C.3     1  ZINC000163855860    0.0600
     11 O11       -15.9897   -1.7415   60.6118 O.3     1  ZINC000163855860   -0.3500
     12 C12       -16.1825   -0.4669   60.2435 C.2     1  ZINC000163855860    0.4800
     13 O13       -15.6998    0.4953   60.7920 O.2     1  ZINC000163855860   -0.4500
     14 C14       -17.0956   -0.4140   59.0379 C.3     1  ZINC000163855860   -0.1800
     15 C15       -12.7612   -2.3656   57.4855 C.ar    1  ZINC000163855860   -0.1100
     16 C16       -11.4289   -2.5962   57.1990 C.ar    1  ZINC000163855860   -0.1100
     17 C17       -10.8629   -2.0700   56.0554 C.ar    1  ZINC000163855860   -0.1000
     18 C18       -11.6366   -1.3018   55.1839 C.ar    1  ZINC000163855860   -0.1100
     19 C19       -11.0330   -0.7373   53.9577 C.2     1  ZINC000163855860    0.5700
     20 O20       -10.8997   -1.4333   52.9701 O.2     1  ZINC000163855860   -0.5300
     21 N21       -10.6306    0.5487   53.9351 N.am    1  ZINC000163855860   -0.6100
     22 C22       -10.7827    1.4080   55.1189 C.3     1  ZINC000163855860    0.1200
     23 C23        -9.3816    1.7946   55.6180 C.3     1  ZINC000163855860   -0.0600
     24 C24        -8.5344    2.2147   54.4358 C.2     1  ZINC000163855860   -0.1700
     25 C25        -8.8041    1.9261   53.1485 C.2     1  ZINC000163855860   -0.1300
     26 C26        -7.8610    2.4199   52.2528 C.2     1  ZINC000163855860   -0.1200
     27 C27        -6.8529    3.0967   52.7936 C.2     1  ZINC000163855860   -0.2100
     28 S28        -7.0469    3.1480   54.5393 S.3     1  ZINC000163855860    0.1100
     29 C29       -10.0338    1.1311   52.7248 C.3     1  ZINC000163855860    0.1700
     30 H30       -13.7015    0.8074   54.7635 H       1  ZINC000163855860    0.0700
     31 H31       -13.5134   -0.4363   53.5040 H       1  ZINC000163855860    0.0900
     32 H32       -14.8742   -0.5267   54.6477 H       1  ZINC000163855860    0.0700
     33 H33       -15.1893   -0.4803   57.1517 H       1  ZINC000163855860    0.4100
     34 H34       -17.8112   -3.0155   56.9062 H       1  ZINC000163855860    0.1100
     35 H35       -17.5723   -1.2719   56.6397 H       1  ZINC000163855860    0.1100
     36 H36       -15.3985   -2.7782   58.8795 H       1  ZINC000163855860    0.0800
     37 H37       -16.6602   -3.5879   59.8595 H       1  ZINC000163855860    0.1200
     38 H38       -18.0219    0.1043   59.2859 H       1  ZINC000163855860    0.1200
     39 H39       -16.5954    0.0794   58.2045 H       1  ZINC000163855860    0.1200
     40 H40       -13.1985   -2.7802   58.3817 H       1  ZINC000163855860    0.1500
     41 H41       -10.8287   -3.1904   57.8721 H       1  ZINC000163855860    0.1300
     42 H42        -9.8215   -2.2524   55.8351 H       1  ZINC000163855860    0.1300
     43 H43       -11.3387    2.3062   54.8502 H       1  ZINC000163855860    0.0800
     44 H44       -11.3150    0.8646   55.8997 H       1  ZINC000163855860    0.1000
     45 H45        -8.9198    0.9397   56.1120 H       1  ZINC000163855860    0.0900
     46 H46        -9.4613    2.6230   56.3220 H       1  ZINC000163855860    0.0900
     47 H47        -7.9426    2.2634   51.1873 H       1  ZINC000163855860    0.1400
     48 H48        -6.0393    3.5468   52.2441 H       1  ZINC000163855860    0.1700
     49 H49        -9.7413    0.3364   52.0384 H       1  ZINC000163855860    0.1000
     50 H50       -10.7526    1.7916   52.2398 H       1  ZINC000163855860    0.0900
@<TRIPOS>BOND
     1     1     2    1
     2     1    30    1
     3     1    31    1
     4     1    32    1
     5     2    18   ar
     6     2     3   ar
     7     3     4    1
     8     3    15   ar
     9     4     5   am
    10     4    33    1
    11     5     6    2
    12     5     7    1
    13     7     8    1
    14     7    34    1
    15     7    35    1
    16     8     9    1
    17     8    14    1
    18     8    10    1
    19    10    11    1
    20    10    36    1
    21    10    37    1
    22    11    12    1
    23    12    13    2
    24    12    14    1
    25    14    38    1
    26    14    39    1
    27    15    16   ar
    28    15    40    1
    29    16    17   ar
    30    16    41    1
    31    17    18   ar
    32    17    42    1
    33    18    19    1
    34    19    20    2
    35    19    21   am
    36    21    29    1
    37    21    22    1
    38    22    23    1
    39    22    43    1
    40    22    44    1
    41    23    24    1
    42    23    45    1
    43    23    46    1
    44    24    28    1
    45    24    25    2
    46    25    26    1
    47    25    29    1
    48    26    27    2
    49    26    47    1
    50    27    28    1
    51    27    48    1
    52    29    49    1
    53    29    50    1
@<TRIPOS>SUBSTRUCTURE
     1 ZINC000163855860        1 TEMP              0 ****  ****    0 ROOT


##########                                Name:    ZINC000550782577
##########                DOCK_Rotatable_Bonds:                   5
##########                         Heavy_Atoms:                  25
##########                    Molecular_Weight:              338.45
##########                DOCK_Rotatable_Bonds:                   5
##########                       Formal_Charge:         -0.00999954
##########                     HBond_Acceptors:                   4
##########                        HBond_Donors:                   0
##########                         Heavy_Atoms:                  25
##########                          Grid_Score:          -25.834888
##########                     Grid_vdw_energy:          -27.181828
##########                      Grid_es_energy:            1.346939
##########           Internal_energy_repulsive:          130.650299

@<TRIPOS>MOLECULE
ZINC000550782577
 51 53 1 0 0
SMALL
USER_CHARGES


@<TRIPOS>ATOM
      1 C1         -2.3754    2.3482   50.2355 C.3     1  ZINC000550782577    0.0700
      2 N2         -2.6260    2.5803   51.6601 N.am    1  ZINC000550782577   -0.5900
      3 C3         -1.6018    2.8740   52.4854 C.2     1  ZINC000550782577    0.5800
      4 O4         -1.8096    3.0666   53.6674 O.2     1  ZINC000550782577   -0.5400
      5 C5         -0.2246    2.9623   51.9526 C.ar    1  ZINC000550782577    0.0300
      6 C6          0.5468    4.0929   52.2184 C.ar    1  ZINC000550782577   -0.0600
      7 C7          1.8335    4.1641   51.7148 C.ar    1  ZINC000550782577   -0.1200
      8 C8          2.3093    3.0972   50.9580 C.ar    1  ZINC000550782577    0.1100
      9 O9          3.5656    3.1255   50.4452 O.3     1  ZINC000550782577   -0.3000
     10 C10         4.0246    1.9430   49.7871 C.3     1  ZINC000550782577    0.1000
     11 C11         3.1426    1.6624   48.5689 C.3     1  ZINC000550782577   -0.2000
     12 C12         5.4724    2.1409   49.3338 C.3     1  ZINC000550782577   -0.1400
     13 C13         3.9501    0.7596   50.7542 C.3     1  ZINC000550782577   -0.2000
     14 C14         1.4813    2.0000   50.7333 C.ar    1  ZINC000550782577   -0.0100
     15 N15         0.2662    1.9613   51.2305 N.ar    1  ZINC000550782577   -0.4100
     16 C16        -3.9900    2.4929   52.1877 C.3     1  ZINC000550782577    0.1400
     17 H17        -3.9630    2.4998   53.2773 H       1  ZINC000550782577    0.1100
     18 C18        -4.8154    3.6826   51.6841 C.3     1  ZINC000550782577   -0.1300
     19 C19        -6.1462    3.6975   52.4335 C.3     1  ZINC000550782577   -0.0800
     20 C20        -6.8062    2.3452   52.3673 C.ar    1  ZINC000550782577   -0.0800
     21 C21        -8.1630    2.2730   52.6544 C.ar    1  ZINC000550782577   -0.1200
     22 C22        -8.8242    1.0627   52.6166 C.ar    1  ZINC000550782577   -0.1200
     23 C23        -8.1312   -0.0881   52.2912 C.ar    1  ZINC000550782577   -0.1200
     24 C24        -6.7836   -0.0182   52.0033 C.ar    1  ZINC000550782577   -0.1200
     25 C25        -6.1170    1.1995   52.0373 C.ar    1  ZINC000550782577   -0.0700
     26 C26        -4.6494    1.2053   51.6977 C.3     1  ZINC000550782577   -0.0900
     27 H27        -2.0645    1.3144   50.0849 H       1  ZINC000550782577    0.0600
     28 H28        -3.2877    2.5393   49.6703 H       1  ZINC000550782577    0.0600
     29 H29        -1.5877    3.0183   49.8912 H       1  ZINC000550782577    0.1100
     30 H30         0.1451    4.9026   52.8095 H       1  ZINC000550782577    0.1600
     31 H31         2.4542    5.0274   51.9042 H       1  ZINC000550782577    0.1500
     32 H32         3.4914    2.2553   47.7235 H       1  ZINC000550782577    0.0700
     33 H33         3.1972    0.6033   48.3170 H       1  ZINC000550782577    0.0800
     34 H34         2.1107    1.9285   48.7983 H       1  ZINC000550782577    0.0800
     35 H35         6.1008    2.3408   50.2018 H       1  ZINC000550782577    0.0700
     36 H36         5.8224    1.2388   48.8318 H       1  ZINC000550782577    0.0800
     37 H37         5.5255    2.9839   48.6449 H       1  ZINC000550782577    0.0700
     38 H38         2.9179    0.6157   51.0735 H       1  ZINC000550782577    0.0800
     39 H39         4.3046   -0.1414   50.2536 H       1  ZINC000550782577    0.0800
     40 H40         4.5748    0.9615   51.6242 H       1  ZINC000550782577    0.0700
     41 H41         1.8445    1.1690   50.1469 H       1  ZINC000550782577    0.1900
     42 H42        -4.2763    4.6105   51.8749 H       1  ZINC000550782577    0.0700
     43 H43        -4.9976    3.5766   50.6146 H       1  ZINC000550782577    0.0700
     44 H44        -5.9685    3.9602   53.4763 H       1  ZINC000550782577    0.0800
     45 H45        -6.8040    4.4410   51.9832 H       1  ZINC000550782577    0.0800
     46 H46        -8.7049    3.1717   52.9096 H       1  ZINC000550782577    0.1200
     47 H47        -9.8796    1.0145   52.8407 H       1  ZINC000550782577    0.1200
     48 H48        -8.6427   -1.0389   52.2627 H       1  ZINC000550782577    0.1200
     49 H49        -6.2428   -0.9180   51.7495 H       1  ZINC000550782577    0.1200
     50 H50        -4.5302    1.1298   50.6169 H       1  ZINC000550782577    0.0800
     51 H51        -4.1672    0.3508   52.1724 H       1  ZINC000550782577    0.0800
@<TRIPOS>BOND
     1     1     2    1
     2     1    27    1
     3     1    28    1
     4     1    29    1
     5     2     3   am
     6     2    16    1
     7     3     4    2
     8     3     5    1
     9     5    15   ar
    10     5     6   ar
    11     6     7   ar
    12     6    30    1
    13     7     8   ar
    14     7    31    1
    15     8     9    1
    16     8    14   ar
    17     9    10    1
    18    10    11    1
    19    10    12    1
    20    10    13    1
    21    11    32    1
    22    11    33    1
    23    11    34    1
    24    12    35    1
    25    12    36    1
    26    12    37    1
    27    13    38    1
    28    13    39    1
    29    13    40    1
    30    14    15   ar
    31    14    41    1
    32    16    17    1
    33    16    26    1
    34    16    18    1
    35    18    19    1
    36    18    42    1
    37    18    43    1
    38    19    20    1
    39    19    44    1
    40    19    45    1
    41    20    25   ar
    42    20    21   ar
    43    21    22   ar
    44    21    46    1
    45    22    23   ar
    46    22    47    1
    47    23    24   ar
    48    23    48    1
    49    24    25   ar
    50    24    49    1
    51    25    26    1
    52    26    50    1
    53    26    51    1
@<TRIPOS>SUBSTRUCTURE
     1 ZINC000550782577        1 TEMP              0 ****  ****    0 ROOT


##########                                Name:    ZINC000444542200
##########                DOCK_Rotatable_Bonds:                   8
##########                         Heavy_Atoms:                  28
##########                    Molecular_Weight:             404.337
##########                DOCK_Rotatable_Bonds:                   8
##########                       Formal_Charge:           0.0200001
##########                     HBond_Acceptors:                  10
##########                        HBond_Donors:                   1
##########                         Heavy_Atoms:                  28
##########                          Grid_Score:          -25.834503
##########                     Grid_vdw_energy:          -25.625509
##########                      Grid_es_energy:           -0.208993
##########           Internal_energy_repulsive:           19.679482

@<TRIPOS>MOLECULE
ZINC000444542200
 45 46 1 0 0
SMALL
USER_CHARGES


@<TRIPOS>ATOM
      1 C1         -7.6396    0.0262   60.8913 C.3     1  ZINC000444542200    0.0300
      2 O2         -8.9181   -0.1569   61.5030 O.3     1  ZINC000444542200   -0.3100
      3 C3         -9.9739   -0.3688   60.6741 C.ar    1  ZINC000444542200    0.1800
      4 C4         -9.7646   -0.5344   59.3135 C.ar    1  ZINC000444542200   -0.1700
      5 C5        -10.8432   -0.7512   58.4670 C.ar    1  ZINC000444542200    0.2300
      6 N6        -10.6325   -0.9190   57.0938 N.am    1  ZINC000444542200   -0.5800
      7 C7        -10.6026   -2.2651   56.5164 C.3     1  ZINC000444542200    0.0700
      8 C8        -10.4573    0.1577   56.3024 C.2     1  ZINC000444542200    0.7100
      9 O9        -10.4824    1.2750   56.7816 O.2     1  ZINC000444542200   -0.5500
     10 N10       -10.2544   -0.0039   54.9799 N.am    1  ZINC000444542200   -0.7300
     11 C11       -10.0621    1.1666   54.1199 C.3     1  ZINC000444542200    0.1700
     12 H12       -10.0607    2.0696   54.7303 H       1  ZINC000444542200    0.1500
     13 C13        -8.7457    1.0472   53.3962 C.ar    1  ZINC000444542200   -0.1300
     14 C14        -8.4045   -0.1384   52.7732 C.ar    1  ZINC000444542200   -0.0800
     15 C15        -7.1971   -0.2495   52.1089 C.ar    1  ZINC000444542200   -0.0900
     16 C16        -6.3287    0.8249   52.0662 C.ar    1  ZINC000444542200   -0.1100
     17 C17        -6.6674    2.0137   52.6891 C.ar    1  ZINC000444542200    0.0800
     18 F18        -5.8191    3.0643   52.6478 F       1  ZINC000444542200   -0.1200
     19 C19        -7.8807    2.1269   53.3505 C.ar    1  ZINC000444542200    0.1000
     20 F20        -8.2135    3.2862   53.9592 F       1  ZINC000444542200   -0.1100
     21 C21       -11.1999    1.2422   53.0998 C.3     1  ZINC000444542200    0.4400
     22 F22       -10.7204    1.7919   51.9061 F       1  ZINC000444542200   -0.1600
     23 F23       -11.6937   -0.0438   52.8558 F       1  ZINC000444542200   -0.1700
     24 F24       -12.2263    2.0477   53.6048 F       1  ZINC000444542200   -0.1800
     25 C25       -12.1306   -0.8020   58.9834 C.ar    1  ZINC000444542200   -0.1900
     26 C26       -12.3385   -0.6361   60.3441 C.ar    1  ZINC000444542200    0.1800
     27 O27       -13.5989   -0.6859   60.8498 O.3     1  ZINC000444542200   -0.3100
     28 C28       -14.6309   -1.1470   59.9756 C.3     1  ZINC000444542200    0.0300
     29 C29       -11.2600   -0.4249   61.1900 C.ar    1  ZINC000444542200   -0.2900
     30 H30        -7.3837   -0.8608   60.3118 H       1  ZINC000444542200    0.0600
     31 H31        -7.6732    0.8937   60.2321 H       1  ZINC000444542200    0.0600
     32 H32        -6.8869    0.1855   61.6634 H       1  ZINC000444542200    0.1000
     33 H33        -8.7627   -0.4945   58.9124 H       1  ZINC000444542200    0.1300
     34 H34       -11.6090   -2.5524   56.2121 H       1  ZINC000444542200    0.0700
     35 H35        -9.9440   -2.2733   55.6479 H       1  ZINC000444542200    0.0700
     36 H36       -10.2323   -2.9711   57.2598 H       1  ZINC000444542200    0.0900
     37 H37       -10.2356   -0.8951   54.5973 H       1  ZINC000444542200    0.4100
     38 H38        -9.0816   -0.9791   52.8057 H       1  ZINC000444542200    0.1400
     39 H39        -6.9321   -1.1768   51.6230 H       1  ZINC000444542200    0.1500
     40 H40        -5.3857    0.7368   51.5473 H       1  ZINC000444542200    0.1500
     41 H41       -12.9703   -0.9703   58.3252 H       1  ZINC000444542200    0.1400
     42 H42       -14.4052   -2.1629   59.6511 H       1  ZINC000444542200    0.0600
     43 H43       -15.5850   -1.1376   60.5028 H       1  ZINC000444542200    0.1000
     44 H44       -14.6899   -0.4925   59.1059 H       1  ZINC000444542200    0.0600
     45 H45       -11.4225   -0.2957   62.2499 H       1  ZINC000444542200    0.1400
@<TRIPOS>BOND
     1     1     2    1
     2     1    30    1
     3     1    31    1
     4     1    32    1
     5     2     3    1
     6     3    29   ar
     7     3     4   ar
     8     4     5   ar
     9     4    33    1
    10     5     6    1
    11     5    25   ar
    12     6     7    1
    13     6     8   am
    14     7    34    1
    15     7    35    1
    16     7    36    1
    17     8     9    2
    18     8    10   am
    19    10    11    1
    20    10    37    1
    21    11    12    1
    22    11    13    1
    23    11    21    1
    24    13    19   ar
    25    13    14   ar
    26    14    15   ar
    27    14    38    1
    28    15    16   ar
    29    15    39    1
    30    16    17   ar
    31    16    40    1
    32    17    18    1
    33    17    19   ar
    34    19    20    1
    35    21    22    1
    36    21    23    1
    37    21    24    1
    38    25    26   ar
    39    25    41    1
    40    26    27    1
    41    26    29   ar
    42    27    28    1
    43    28    42    1
    44    28    43    1
    45    28    44    1
    46    29    45    1
@<TRIPOS>SUBSTRUCTURE
     1 ZINC000444542200        1 TEMP              0 ****  ****    0 ROOT


##########                                Name:    ZINC001039666729
##########                DOCK_Rotatable_Bonds:                   3
##########                         Heavy_Atoms:                  25
##########                    Molecular_Weight:             344.376
##########                DOCK_Rotatable_Bonds:                   3
##########                       Formal_Charge:          -0.0199998
##########                     HBond_Acceptors:                  10
##########                        HBond_Donors:                   2
##########                         Heavy_Atoms:                  25
##########                          Grid_Score:          -25.833405
##########                     Grid_vdw_energy:          -26.050348
##########                      Grid_es_energy:            0.216944
##########           Internal_energy_repulsive:           23.095995

@<TRIPOS>MOLECULE
ZINC001039666729
 45 47 1 0 0
SMALL
USER_CHARGES


@<TRIPOS>ATOM
      1 C1         -3.8794    4.1002   56.9543 C.3     1  ZINC001039666729   -0.1100
      2 C2         -3.6297    3.8704   55.4860 C.ar    1  ZINC001039666729    0.2200
      3 C3         -2.3378    3.7085   55.0112 C.ar    1  ZINC001039666729   -0.3000
      4 C4         -2.1520    3.4993   53.6535 C.ar    1  ZINC001039666729    0.1900
      5 N5         -3.2068    3.4608   52.8564 N.ar    1  ZINC001039666729   -0.5800
      6 C6         -4.4293    3.6193   53.3425 C.ar    1  ZINC001039666729    0.6000
      7 N7         -5.5107    3.5729   52.4799 N.pl3   1  ZINC001039666729   -0.5900
      8 C8         -5.4399    3.9608   51.0380 C.3     1  ZINC001039666729    0.1200
      9 C9         -4.8486    2.7808   50.2635 C.3     1  ZINC001039666729    0.0900
     10 N10        -5.7696    1.6246   50.3963 N.am    1  ZINC001039666729   -0.7400
     11 C11        -5.4122    0.7232   51.3640 C.2     1  ZINC001039666729    0.5200
     12 O12        -4.4166    0.8955   52.0348 O.2     1  ZINC001039666729   -0.5200
     13 C13        -6.2844   -0.4873   51.5766 C.3     1  ZINC001039666729   -0.1500
     14 C14        -6.8320   -0.4770   53.0053 C.3     1  ZINC001039666729    0.1100
     15 N15        -7.5566    0.8023   53.2199 N.am    1  ZINC001039666729   -0.6100
     16 C16        -8.8632    0.9565   52.9273 C.2     1  ZINC001039666729    0.6100
     17 O17        -9.4975    0.0261   52.4696 O.2     1  ZINC001039666729   -0.5200
     18 C18        -9.5248    2.2570   53.1632 C.2     1  ZINC001039666729   -0.0400
     19 N19        -9.5971    2.9240   54.3051 N.2     1  ZINC001039666729   -0.2500
     20 N20       -10.2543    4.0105   54.1026 N.pl3   1  ZINC001039666729   -0.2300
     21 N21       -10.6273    4.1043   52.8764 N.2     1  ZINC001039666729   -0.2800
     22 C22       -10.2060    3.0508   52.2189 C.2     1  ZINC001039666729    0.0400
     23 C23        -6.7259    1.8980   53.7833 C.3     1  ZINC001039666729    0.1100
     24 C24        -6.8774    3.1232   52.8854 C.3     1  ZINC001039666729    0.1300
     25 N25        -4.6414    3.8155   54.6354 N.ar    1  ZINC001039666729   -0.5700
     26 H26        -4.0082    3.1408   57.4554 H       1  ZINC001039666729    0.0800
     27 H27        -3.0296    4.6262   57.3895 H       1  ZINC001039666729    0.0800
     28 H28        -4.7810    4.6998   57.0801 H       1  ZINC001039666729    0.0800
     29 H29        -1.4941    3.7448   55.6844 H       1  ZINC001039666729    0.1400
     30 H30        -1.1582    3.3698   53.2514 H       1  ZINC001039666729    0.1600
     31 H31        -6.4402    4.1822   50.6659 H       1  ZINC001039666729    0.0800
     32 H32        -4.8004    4.8359   50.9222 H       1  ZINC001039666729    0.0900
     33 H33        -4.7435    3.0477   49.2119 H       1  ZINC001039666729    0.0800
     34 H34        -3.8734    2.5226   50.6763 H       1  ZINC001039666729    0.1000
     35 H35        -6.5594    1.5162   49.8434 H       1  ZINC001039666729    0.4100
     36 H36        -7.1138   -0.4661   50.8696 H       1  ZINC001039666729    0.0800
     37 H37        -5.6960   -1.3912   51.4194 H       1  ZINC001039666729    0.1100
     38 H38        -7.5164   -1.3141   53.1423 H       1  ZINC001039666729    0.1100
     39 H39        -6.0082   -0.5558   53.7147 H       1  ZINC001039666729    0.0900
     40 H40       -10.4441    4.6723   54.7859 H       1  ZINC001039666729    0.4700
     41 H41       -10.3565    2.8329   51.1718 H       1  ZINC001039666729    0.2100
     42 H42        -7.0647    2.1343   54.7920 H       1  ZINC001039666729    0.0800
     43 H43        -5.6806    1.5901   53.8092 H       1  ZINC001039666729    0.1200
     44 H44        -7.3767    3.9224   53.4331 H       1  ZINC001039666729    0.0700
     45 H45        -7.4585    2.8625   52.0008 H       1  ZINC001039666729    0.0900
@<TRIPOS>BOND
     1     1     2    1
     2     1    26    1
     3     1    27    1
     4     1    28    1
     5     2    25   ar
     6     2     3   ar
     7     3     4   ar
     8     3    29    1
     9     4     5   ar
    10     4    30    1
    11     5     6   ar
    12     6     7    1
    13     6    25   ar
    14     7    24    1
    15     7     8    1
    16     8     9    1
    17     8    31    1
    18     8    32    1
    19     9    10    1
    20     9    33    1
    21     9    34    1
    22    10    11   am
    23    10    35    1
    24    11    12    2
    25    11    13    1
    26    13    14    1
    27    13    36    1
    28    13    37    1
    29    14    15    1
    30    14    38    1
    31    14    39    1
    32    15    16   am
    33    15    23    1
    34    16    17    2
    35    16    18    1
    36    18    22    1
    37    18    19    2
    38    19    20    1
    39    20    21    1
    40    20    40    1
    41    21    22    2
    42    22    41    1
    43    23    24    1
    44    23    42    1
    45    23    43    1
    46    24    44    1
    47    24    45    1
@<TRIPOS>SUBSTRUCTURE
     1 ZINC001039666729        1 TEMP              0 ****  ****    0 ROOT


##########                                Name:    ZINC000648570180
##########                DOCK_Rotatable_Bonds:                   4
##########                         Heavy_Atoms:                  25
##########                    Molecular_Weight:             342.484
##########                DOCK_Rotatable_Bonds:                   4
##########                       Formal_Charge:          0.00999971
##########                     HBond_Acceptors:                   5
##########                        HBond_Donors:                   0
##########                         Heavy_Atoms:                  25
##########                          Grid_Score:          -25.804594
##########                     Grid_vdw_energy:          -24.981812
##########                      Grid_es_energy:           -0.822782
##########           Internal_energy_repulsive:           86.752213

@<TRIPOS>MOLECULE
ZINC000648570180
 55 58 1 0 0
SMALL
USER_CHARGES


@<TRIPOS>ATOM
      1 C1        -11.8621   -0.9184   56.1418 C.3     1  ZINC000648570180   -0.1500
      2 C2        -12.4080   -0.6873   57.5523 C.3     1  ZINC000648570180   -0.0600
      3 C3        -13.7619    0.0217   57.4802 C.3     1  ZINC000648570180   -0.1400
      4 C4        -12.5544   -2.0345   58.2896 C.3     1  ZINC000648570180   -0.1200
      5 C5        -12.1579   -1.7121   59.7518 C.3     1  ZINC000648570180   -0.1300
      6 C6        -10.9915   -0.7082   59.5763 C.3     1  ZINC000648570180   -0.1200
      7 C7        -11.4143    0.1559   58.3704 C.3     1  ZINC000648570180   -0.0700
      8 H8        -11.8970    1.0699   58.7168 H       1  ZINC000648570180    0.0800
      9 C9        -10.1915    0.5003   57.5179 C.3     1  ZINC000648570180   -0.1000
     10 H10        -9.8744   -0.3597   56.9278 H       1  ZINC000648570180    0.1000
     11 C11       -10.4745    1.7249   56.6082 C.3     1  ZINC000648570180   -0.1400
     12 C12        -9.0693    2.3231   56.3866 C.3     1  ZINC000648570180    0.1200
     13 N13        -8.2184    1.8599   57.4926 N.am    1  ZINC000648570180   -0.6000
     14 C14        -6.9117    2.1487   57.6524 C.2     1  ZINC000648570180    0.5800
     15 O15        -6.3048    1.7085   58.6082 O.2     1  ZINC000648570180   -0.5200
     16 C16        -6.2139    3.0049   56.6602 C.ar    1  ZINC000648570180    0.1600
     17 C17        -5.4335    4.0821   57.0793 C.ar    1  ZINC000648570180   -0.2000
     18 C18        -4.7999    4.8538   56.1148 C.ar    1  ZINC000648570180    0.1800
     19 N19        -4.9540    4.5469   54.8392 N.ar    1  ZINC000648570180   -0.5400
     20 C20        -5.7027    3.5164   54.4712 C.ar    1  ZINC000648570180    0.4800
     21 N21        -5.8383    3.2288   53.1239 N.3     1  ZINC000648570180   -0.4400
     22 C22        -4.5117    3.0311   52.4855 C.3     1  ZINC000648570180    0.0500
     23 C23        -4.8512    2.2311   51.2028 C.3     1  ZINC000648570180   -0.1200
     24 C24        -5.9815    1.2871   51.6733 C.3     1  ZINC000648570180   -0.1300
     25 C25        -6.5748    1.9619   52.9238 C.3     1  ZINC000648570180    0.0400
     26 N26        -6.3193    2.7528   55.3579 N.ar    1  ZINC000648570180   -0.5000
     27 C27        -9.0312    1.0273   58.3985 C.3     1  ZINC000648570180    0.1100
     28 H28       -10.8518   -1.3226   56.2048 H       1  ZINC000648570180    0.0600
     29 H29       -12.5038   -1.6249   55.6151 H       1  ZINC000648570180    0.0500
     30 H30       -11.8419    0.0275   55.6005 H       1  ZINC000648570180    0.0700
     31 H31       -14.4618   -0.5888   56.9095 H       1  ZINC000648570180    0.0500
     32 H32       -14.1482    0.1706   58.4885 H       1  ZINC000648570180    0.0500
     33 H33       -13.6404    0.9882   56.9912 H       1  ZINC000648570180    0.0500
     34 H34       -13.5853   -2.3852   58.2423 H       1  ZINC000648570180    0.0600
     35 H35       -11.8780   -2.7767   57.8657 H       1  ZINC000648570180    0.0700
     36 H36       -12.9889   -1.2496   60.2844 H       1  ZINC000648570180    0.0700
     37 H37       -11.8196   -2.6110   60.2674 H       1  ZINC000648570180    0.0700
     38 H38       -10.8820   -0.0910   60.4681 H       1  ZINC000648570180    0.0700
     39 H39       -10.0629   -1.2363   59.3603 H       1  ZINC000648570180    0.0700
     40 H40       -10.9129    1.4091   55.6616 H       1  ZINC000648570180    0.0900
     41 H41       -11.1225    2.4401   57.1150 H       1  ZINC000648570180    0.0800
     42 H42        -8.6640    1.9753   55.4364 H       1  ZINC000648570180    0.0800
     43 H43        -9.1247    3.4116   56.3923 H       1  ZINC000648570180    0.0700
     44 H44        -5.3249    4.3107   58.1292 H       1  ZINC000648570180    0.1600
     45 H45        -4.1882    5.6955   56.4040 H       1  ZINC000648570180    0.1800
     46 H46        -4.0598    3.9902   52.2325 H       1  ZINC000648570180    0.1000
     47 H47        -3.8540    2.4545   53.1359 H       1  ZINC000648570180    0.0500
     48 H48        -5.2067    2.8964   50.4161 H       1  ZINC000648570180    0.0800
     49 H49        -3.9869    1.6594   50.8648 H       1  ZINC000648570180    0.0800
     50 H50        -6.7419    1.1917   50.8981 H       1  ZINC000648570180    0.0800
     51 H51        -5.5753    0.3083   51.9283 H       1  ZINC000648570180    0.0700
     52 H52        -6.4443    1.3156   53.7917 H       1  ZINC000648570180    0.0900
     53 H53        -7.6335    2.1687   52.7673 H       1  ZINC000648570180    0.0900
     54 H54        -9.4219    1.6295   59.2188 H       1  ZINC000648570180    0.0700
     55 H55        -8.4393    0.1975   58.7845 H       1  ZINC000648570180    0.0800
@<TRIPOS>BOND
     1     1     2    1
     2     1    28    1
     3     1    29    1
     4     1    30    1
     5     2     7    1
     6     2     3    1
     7     2     4    1
     8     3    31    1
     9     3    32    1
    10     3    33    1
    11     4     5    1
    12     4    34    1
    13     4    35    1
    14     5     6    1
    15     5    36    1
    16     5    37    1
    17     6     7    1
    18     6    38    1
    19     6    39    1
    20     7     8    1
    21     7     9    1
    22     9    10    1
    23     9    27    1
    24     9    11    1
    25    11    12    1
    26    11    40    1
    27    11    41    1
    28    12    13    1
    29    12    42    1
    30    12    43    1
    31    13    14   am
    32    13    27    1
    33    14    15    2
    34    14    16    1
    35    16    26   ar
    36    16    17   ar
    37    17    18   ar
    38    17    44    1
    39    18    19   ar
    40    18    45    1
    41    19    20   ar
    42    20    21    1
    43    20    26   ar
    44    21    25    1
    45    21    22    1
    46    22    23    1
    47    22    46    1
    48    22    47    1
    49    23    24    1
    50    23    48    1
    51    23    49    1
    52    24    25    1
    53    24    50    1
    54    24    51    1
    55    25    52    1
    56    25    53    1
    57    27    54    1
    58    27    55    1
@<TRIPOS>SUBSTRUCTURE
     1 ZINC000648570180        1 TEMP              0 ****  ****    0 ROOT


##########                                Name:    ZINC000956479608
##########                DOCK_Rotatable_Bonds:                   5
##########                         Heavy_Atoms:                  25
##########                    Molecular_Weight:             345.442
##########                DOCK_Rotatable_Bonds:                   5
##########                       Formal_Charge:          -0.0100001
##########                     HBond_Acceptors:                   6
##########                        HBond_Donors:                   1
##########                         Heavy_Atoms:                  25
##########                          Grid_Score:          -25.689337
##########                     Grid_vdw_energy:          -24.172462
##########                      Grid_es_energy:           -1.516875
##########           Internal_energy_repulsive:           32.125275

@<TRIPOS>MOLECULE
ZINC000956479608
 52 55 1 0 0
SMALL
USER_CHARGES


@<TRIPOS>ATOM
      1 C1         -3.2073    6.5516   53.6080 C.3     1  ZINC000956479608   -0.0900
      2 C2         -3.0224    5.2470   54.3394 C.2     1  ZINC000956479608   -0.1100
      3 C3         -3.4436    4.0011   53.9621 C.2     1  ZINC000956479608   -0.1000
      4 C4         -4.1842    3.6492   52.7359 C.2     1  ZINC000956479608    0.6100
      5 O5         -4.4826    4.5151   51.9362 O.2     1  ZINC000956479608   -0.5000
      6 N6         -4.5301    2.3677   52.5020 N.am    1  ZINC000956479608   -0.7100
      7 C7         -5.2672    2.0184   51.2850 C.3     1  ZINC000956479608    0.1800
      8 C8         -4.4425    2.4136   50.0584 C.3     1  ZINC000956479608   -0.1700
      9 C9         -5.5258    0.5102   51.2608 C.3     1  ZINC000956479608   -0.1500
     10 C10        -6.3221    0.1126   52.5076 C.3     1  ZINC000956479608    0.1100
     11 N11        -7.5394    0.9326   52.5726 N.am    1  ZINC000956479608   -0.6100
     12 C12        -8.7516    0.3544   52.6865 C.2     1  ZINC000956479608    0.5500
     13 O13        -8.8447   -0.8538   52.7377 O.2     1  ZINC000956479608   -0.5400
     14 C14        -9.9911    1.2091   52.7501 C.3     1  ZINC000956479608   -0.1900
     15 H15       -10.1292    1.9004   51.9188 H       1  ZINC000956479608    0.1200
     16 C16       -11.2394    0.5941   53.3693 C.3     1  ZINC000956479608   -0.1100
     17 H17       -11.1353   -0.4267   53.7370 H       1  ZINC000956479608    0.1000
     18 C18       -12.6093    0.9255   52.7980 C.3     1  ZINC000956479608   -0.0900
     19 C19       -12.7734    2.4374   52.6425 C.3     1  ZINC000956479608   -0.1200
     20 C20       -12.4990    3.1006   53.9971 C.3     1  ZINC000956479608   -0.1200
     21 C21       -10.9924    3.0753   54.2557 C.3     1  ZINC000956479608   -0.0900
     22 C22       -10.4716    1.6615   54.1377 C.3     1  ZINC000956479608   -0.1100
     23 H23        -9.8944    1.3034   54.9901 H       1  ZINC000956479608    0.1100
     24 C24        -7.4103    2.3949   52.5116 C.3     1  ZINC000956479608    0.1000
     25 C25        -6.6018    2.7670   51.2648 C.3     1  ZINC000956479608   -0.1400
     26 O26        -3.0451    3.1612   54.9361 O.3     1  ZINC000956479608    0.1200
     27 N27        -2.4575    3.7487   55.8140 N.2     1  ZINC000956479608   -0.3400
     28 C28        -2.3684    5.0241   55.5715 C.2     1  ZINC000956479608   -0.0100
     29 H29        -2.3658    6.7128   52.9341 H       1  ZINC000956479608    0.0800
     30 H30        -4.1323    6.5176   53.0325 H       1  ZINC000956479608    0.0900
     31 H31        -3.2573    7.3681   54.3284 H       1  ZINC000956479608    0.0800
     32 H32        -4.2910    1.6767   53.1393 H       1  ZINC000956479608    0.4100
     33 H33        -3.4915    1.8810   50.0729 H       1  ZINC000956479608    0.0800
     34 H34        -4.9907    2.1538   49.1529 H       1  ZINC000956479608    0.0700
     35 H35        -4.2575    3.4877   50.0756 H       1  ZINC000956479608    0.0600
     36 H36        -6.0956    0.2531   50.3678 H       1  ZINC000956479608    0.0800
     37 H37        -4.5745   -0.0219   51.2516 H       1  ZINC000956479608    0.1000
     38 H38        -6.5940   -0.9411   52.4468 H       1  ZINC000956479608    0.0900
     39 H39        -5.7172    0.2851   53.3978 H       1  ZINC000956479608    0.0600
     40 H40       -12.7171    0.4499   51.8232 H       1  ZINC000956479608    0.0700
     41 H41       -13.3801    0.5471   53.4694 H       1  ZINC000956479608    0.0700
     42 H42       -12.0637    2.8084   51.9031 H       1  ZINC000956479608    0.0600
     43 H43       -13.7906    2.6642   52.3234 H       1  ZINC000956479608    0.0700
     44 H44       -12.8496    4.1325   53.9771 H       1  ZINC000956479608    0.0700
     45 H45       -13.0148    2.5513   54.7847 H       1  ZINC000956479608    0.0700
     46 H46       -10.4893    3.7048   53.5218 H       1  ZINC000956479608    0.0700
     47 H47       -10.7911    3.4587   55.2560 H       1  ZINC000956479608    0.0700
     48 H48        -8.4004    2.8470   52.4535 H       1  ZINC000956479608    0.0900
     49 H49        -6.8943    2.7536   53.4022 H       1  ZINC000956479608    0.0700
     50 H50        -6.4165    3.8410   51.2584 H       1  ZINC000956479608    0.0900
     51 H51        -7.1616    2.4886   50.3718 H       1  ZINC000956479608    0.0900
     52 H52        -1.8943    5.7680   56.1945 H       1  ZINC000956479608    0.2000
@<TRIPOS>BOND
     1     1     2    1
     2     1    29    1
     3     1    30    1
     4     1    31    1
     5     2    28    1
     6     2     3    2
     7     3     4    1
     8     3    26    1
     9     4     5    2
    10     4     6   am
    11     6     7    1
    12     6    32    1
    13     7    25    1
    14     7     8    1
    15     7     9    1
    16     8    33    1
    17     8    34    1
    18     8    35    1
    19     9    10    1
    20     9    36    1
    21     9    37    1
    22    10    11    1
    23    10    38    1
    24    10    39    1
    25    11    12   am
    26    11    24    1
    27    12    13    2
    28    12    14    1
    29    14    15    1
    30    14    22    1
    31    14    16    1
    32    16    17    1
    33    16    22    1
    34    16    18    1
    35    18    19    1
    36    18    40    1
    37    18    41    1
    38    19    20    1
    39    19    42    1
    40    19    43    1
    41    20    21    1
    42    20    44    1
    43    20    45    1
    44    21    22    1
    45    21    46    1
    46    21    47    1
    47    22    23    1
    48    24    25    1
    49    24    48    1
    50    24    49    1
    51    25    50    1
    52    25    51    1
    53    26    27    1
    54    27    28    2
    55    28    52    1
@<TRIPOS>SUBSTRUCTURE
     1 ZINC000956479608        1 TEMP              0 ****  ****    0 ROOT


##########                                Name:    ZINC000462219577
##########                DOCK_Rotatable_Bonds:                   8
##########                         Heavy_Atoms:                  31
##########                    Molecular_Weight:             418.539
##########                DOCK_Rotatable_Bonds:                   8
##########                       Formal_Charge:         -0.00999914
##########                     HBond_Acceptors:                   6
##########                        HBond_Donors:                   2
##########                         Heavy_Atoms:                  31
##########                          Grid_Score:          -25.686953
##########                     Grid_vdw_energy:          -25.578690
##########                      Grid_es_energy:           -0.108263
##########           Internal_energy_repulsive:           20.174841

@<TRIPOS>MOLECULE
ZINC000462219577
 61 64 1 0 0
SMALL
USER_CHARGES


@<TRIPOS>ATOM
      1 C1         -9.8032    5.1377   49.8031 C.3     1  ZINC000462219577   -0.0700
      2 C2        -10.3501    4.6625   51.1245 C.2     1  ZINC000462219577    0.0800
      3 N3        -11.5985    4.3584   51.3731 N.2     1  ZINC000462219577   -0.2900
      4 N4        -11.6943    3.9623   52.7134 N.pl3   1  ZINC000462219577   -0.3200
      5 C5        -12.8633    3.5570   53.3724 C.ar    1  ZINC000462219577    0.1500
      6 C6        -12.8635    2.4002   54.1401 C.ar    1  ZINC000462219577   -0.1100
      7 C7        -14.0168    2.0034   54.7882 C.ar    1  ZINC000462219577   -0.1000
      8 C8        -15.1707    2.7567   54.6726 C.ar    1  ZINC000462219577   -0.1200
      9 C9        -15.1737    3.9091   53.9082 C.ar    1  ZINC000462219577   -0.1000
     10 C10       -14.0217    4.3145   53.2632 C.ar    1  ZINC000462219577   -0.1300
     11 C11       -10.4593    4.0399   53.2587 C.2     1  ZINC000462219577    0.0900
     12 C12       -10.0939    3.7067   54.6822 C.3     1  ZINC000462219577   -0.0800
     13 C13        -9.4372    2.3256   54.7302 C.3     1  ZINC000462219577    0.1700
     14 H14        -9.9462    1.6569   54.0361 H       1  ZINC000462219577    0.1000
     15 C15        -9.5387    1.7616   56.1489 C.3     1  ZINC000462219577   -0.1600
     16 N16        -8.0270    2.4420   54.3508 N.am    1  ZINC000462219577   -0.7400
     17 C17        -7.6292    2.0781   53.1155 C.2     1  ZINC000462219577    0.7100
     18 O18        -8.4410    1.6546   52.3156 O.2     1  ZINC000462219577   -0.5800
     19 N19        -6.3315    2.1837   52.7670 N.am    1  ZINC000462219577   -0.7400
     20 C20        -5.8995    1.7899   51.4238 C.3     1  ZINC000462219577    0.1600
     21 H21        -6.3435    0.8285   51.1652 H       1  ZINC000462219577    0.1000
     22 C22        -6.3452    2.8491   50.4109 C.3     1  ZINC000462219577   -0.1700
     23 C23        -5.6568    4.1771   50.7370 C.3     1  ZINC000462219577    0.0700
     24 O24        -4.2396    3.9947   50.7182 O.3     1  ZINC000462219577   -0.3700
     25 C25        -3.7602    3.0502   51.6775 C.3     1  ZINC000462219577    0.1400
     26 H26        -4.0454    3.3724   52.6790 H       1  ZINC000462219577    0.0600
     27 C27        -2.2585    2.9603   51.5872 C.ar    1  ZINC000462219577   -0.0900
     28 C28        -1.6617    2.5114   50.4240 C.ar    1  ZINC000462219577   -0.0900
     29 C29        -0.2843    2.4290   50.3411 C.ar    1  ZINC000462219577   -0.1200
     30 C30         0.4963    2.7959   51.4214 C.ar    1  ZINC000462219577   -0.1200
     31 C31        -0.1006    3.2457   52.5843 C.ar    1  ZINC000462219577   -0.1200
     32 C32        -1.4778    3.3322   52.6656 C.ar    1  ZINC000462219577   -0.1100
     33 C33        -4.3724    1.6747   51.3898 C.3     1  ZINC000462219577   -0.1500
     34 C34        -9.6097    4.4645   52.2950 C.2     1  ZINC000462219577   -0.2600
     35 H35        -9.4940    4.2787   49.2077 H       1  ZINC000462219577    0.0800
     36 H36       -10.5749    5.6916   49.2684 H       1  ZINC000462219577    0.0700
     37 H37        -8.9450    5.7868   49.9773 H       1  ZINC000462219577    0.0800
     38 H38       -11.9628    1.8111   54.2303 H       1  ZINC000462219577    0.1300
     39 H39       -14.0177    1.1037   55.3856 H       1  ZINC000462219577    0.1300
     40 H40       -16.0714    2.4442   55.1799 H       1  ZINC000462219577    0.1300
     41 H41       -16.0765    4.4949   53.8192 H       1  ZINC000462219577    0.1300
     42 H42       -14.0246    5.2147   52.6664 H       1  ZINC000462219577    0.1300
     43 H43        -9.3974    4.4536   55.0631 H       1  ZINC000462219577    0.0900
     44 H44       -10.9940    3.7024   55.2970 H       1  ZINC000462219577    0.1100
     45 H45        -9.0297    2.4303   56.8430 H       1  ZINC000462219577    0.0600
     46 H46       -10.5879    1.6750   56.4311 H       1  ZINC000462219577    0.0700
     47 H47        -9.0708    0.7777   56.1831 H       1  ZINC000462219577    0.0700
     48 H48        -7.3795    2.7810   54.9886 H       1  ZINC000462219577    0.3900
     49 H49        -5.6837    2.5206   53.4056 H       1  ZINC000462219577    0.3900
     50 H50        -6.0671    2.5318   49.4059 H       1  ZINC000462219577    0.0800
     51 H51        -7.4263    2.9756   50.4680 H       1  ZINC000462219577    0.0800
     52 H52        -5.9371    4.9238   49.9940 H       1  ZINC000462219577    0.1000
     53 H53        -5.9669    4.5141   51.7261 H       1  ZINC000462219577    0.0500
     54 H54        -2.2715    2.2247   49.5800 H       1  ZINC000462219577    0.1300
     55 H55         0.1820    2.0777   49.4326 H       1  ZINC000462219577    0.1200
     56 H56         1.5724    2.7309   51.3569 H       1  ZINC000462219577    0.1200
     57 H57         0.5093    3.5320   53.4284 H       1  ZINC000462219577    0.1200
     58 H58        -1.9441    3.6835   53.5742 H       1  ZINC000462219577    0.1200
     59 H59        -4.0422    0.9635   52.1469 H       1  ZINC000462219577    0.0800
     60 H60        -4.0546    1.3333   50.4046 H       1  ZINC000462219577    0.0900
     61 H61        -8.5484    4.6286   52.4109 H       1  ZINC000462219577    0.1500
@<TRIPOS>BOND
     1     1     2    1
     2     1    35    1
     3     1    36    1
     4     1    37    1
     5     2    34    1
     6     2     3    2
     7     3     4    1
     8     4     5    1
     9     4    11    1
    10     5    10   ar
    11     5     6   ar
    12     6     7   ar
    13     6    38    1
    14     7     8   ar
    15     7    39    1
    16     8     9   ar
    17     8    40    1
    18     9    10   ar
    19     9    41    1
    20    10    42    1
    21    11    12    1
    22    11    34    2
    23    12    13    1
    24    12    43    1
    25    12    44    1
    26    13    14    1
    27    13    15    1
    28    13    16    1
    29    15    45    1
    30    15    46    1
    31    15    47    1
    32    16    17   am
    33    16    48    1
    34    17    18    2
    35    17    19   am
    36    19    20    1
    37    19    49    1
    38    20    21    1
    39    20    33    1
    40    20    22    1
    41    22    23    1
    42    22    50    1
    43    22    51    1
    44    23    24    1
    45    23    52    1
    46    23    53    1
    47    24    25    1
    48    25    26    1
    49    25    27    1
    50    25    33    1
    51    27    32   ar
    52    27    28   ar
    53    28    29   ar
    54    28    54    1
    55    29    30   ar
    56    29    55    1
    57    30    31   ar
    58    30    56    1
    59    31    32   ar
    60    31    57    1
    61    32    58    1
    62    33    59    1
    63    33    60    1
    64    34    61    1
@<TRIPOS>SUBSTRUCTURE
     1 ZINC000462219577        1 TEMP              0 ****  ****    0 ROOT


##########                                Name:    ZINC001060733018
##########                DOCK_Rotatable_Bonds:                   7
##########                         Heavy_Atoms:                  24
##########                    Molecular_Weight:             342.429
##########                DOCK_Rotatable_Bonds:                   7
##########                       Formal_Charge:           0.0200001
##########                     HBond_Acceptors:                   6
##########                        HBond_Donors:                   2
##########                         Heavy_Atoms:                  24
##########                          Grid_Score:          -25.617830
##########                     Grid_vdw_energy:          -25.155342
##########                      Grid_es_energy:           -0.462488
##########           Internal_energy_repulsive:            7.733070

@<TRIPOS>MOLECULE
ZINC001060733018
 52 54 1 0 0
SMALL
USER_CHARGES


@<TRIPOS>ATOM
      1 O1        -12.2420   -2.6155   57.5972 O.2     1  ZINC001060733018   -0.5000
      2 C2        -12.6113   -1.4922   57.8662 C.2     1  ZINC001060733018    0.4700
      3 N3        -12.8815   -0.6167   56.8776 N.am    1  ZINC001060733018   -0.7100
      4 C4        -12.7250   -1.0210   55.4782 C.3     1  ZINC001060733018    0.1200
      5 C5        -11.3330   -0.6218   54.9846 C.3     1  ZINC001060733018   -0.1000
      6 H6        -10.5802   -1.2219   55.4959 H       1  ZINC001060733018    0.0800
      7 C7        -11.2384   -0.8617   53.4764 C.3     1  ZINC001060733018   -0.1100
      8 C8         -9.8462   -0.4626   52.9829 C.3     1  ZINC001060733018   -0.1300
      9 C9         -9.6053    1.0189   53.2797 C.3     1  ZINC001060733018    0.1400
     10 H10       -10.3580    1.6190   52.7684 H       1  ZINC001060733018    0.0900
     11 N11        -8.2724    1.4011   52.8070 N.am    1  ZINC001060733018   -0.7300
     12 C12        -8.0305    2.6715   52.4274 C.2     1  ZINC001060733018    0.5200
     13 O13        -8.9161    3.4986   52.4783 O.2     1  ZINC001060733018   -0.5400
     14 C14        -6.6599    3.0641   51.9394 C.3     1  ZINC001060733018   -0.1000
     15 H15        -6.7066    4.0518   51.4808 H       1  ZINC001060733018    0.1000
     16 C16        -6.1747    2.0450   50.9073 C.3     1  ZINC001060733018   -0.1100
     17 C17        -4.8162    2.4756   50.3523 C.3     1  ZINC001060733018   -0.1200
     18 C18        -3.7836    2.4882   51.4836 C.3     1  ZINC001060733018   -0.0800
     19 C19        -4.2821    3.4113   52.5993 C.3     1  ZINC001060733018   -0.1300
     20 C20        -3.8558    4.8784   52.5505 C.3     1  ZINC001060733018   -0.1700
     21 C21        -3.2534    3.9398   53.5983 C.3     1  ZINC001060733018   -0.1700
     22 C22        -5.6866    3.0956   53.1218 C.3     1  ZINC001060733018   -0.0600
     23 C23        -9.6999    1.2589   54.7878 C.3     1  ZINC001060733018   -0.1200
     24 C24       -11.0920    0.8597   55.2814 C.3     1  ZINC001060733018   -0.1100
     25 C25       -12.7740   -1.0768   59.3056 C.3     1  ZINC001060733018    0.2600
     26 F26       -14.0771   -1.3605   59.7283 F       1  ZINC001060733018   -0.1700
     27 F27       -11.8625   -1.7806   60.1000 F       1  ZINC001060733018   -0.1900
     28 H28       -13.1795    0.2810   57.0927 H       1  ZINC001060733018    0.4100
     29 H29       -12.8434   -2.1015   55.3967 H       1  ZINC001060733018    0.0800
     30 H30       -13.4820   -0.5257   54.8701 H       1  ZINC001060733018    0.0800
     31 H31       -11.4100   -1.9171   53.2650 H       1  ZINC001060733018    0.0700
     32 H32       -11.9911   -0.2617   52.9652 H       1  ZINC001060733018    0.0700
     33 H33        -9.7789   -0.6335   51.9085 H       1  ZINC001060733018    0.0700
     34 H34        -9.0937   -1.0627   53.4942 H       1  ZINC001060733018    0.0600
     35 H35        -7.5638    0.7398   52.7674 H       1  ZINC001060733018    0.4000
     36 H36        -6.0795    1.0676   51.3804 H       1  ZINC001060733018    0.0700
     37 H37        -6.8953    1.9842   50.0918 H       1  ZINC001060733018    0.0700
     38 H38        -4.5004    1.7743   49.5798 H       1  ZINC001060733018    0.0700
     39 H39        -4.8986    3.4746   49.9243 H       1  ZINC001060733018    0.0700
     40 H40        -3.6576    1.4785   51.8742 H       1  ZINC001060733018    0.0700
     41 H41        -2.8304    2.8561   51.1039 H       1  ZINC001060733018    0.0700
     42 H42        -3.2150    5.1893   51.7254 H       1  ZINC001060733018    0.0900
     43 H43        -4.5737    5.6229   52.8949 H       1  ZINC001060733018    0.0900
     44 H44        -3.5749    4.0668   54.6320 H       1  ZINC001060733018    0.0900
     45 H45        -2.2164    3.6328   53.4627 H       1  ZINC001060733018    0.0900
     46 H46        -5.9951    3.8661   53.8284 H       1  ZINC001060733018    0.0700
     47 H47        -5.6821    2.1245   53.6170 H       1  ZINC001060733018    0.0800
     48 H48        -9.5282    2.3143   54.9992 H       1  ZINC001060733018    0.0700
     49 H49        -8.9472    0.6587   55.2991 H       1  ZINC001060733018    0.0700
     50 H50       -11.8447    1.4598   54.7701 H       1  ZINC001060733018    0.0700
     51 H51       -11.1594    1.0306   56.3558 H       1  ZINC001060733018    0.0700
     52 H52       -12.5867   -0.0071   59.3985 H       1  ZINC001060733018    0.1400
@<TRIPOS>BOND
     1     1     2    2
     2     2     3   am
     3     2    25    1
     4     3     4    1
     5     3    28    1
     6     4     5    1
     7     4    29    1
     8     4    30    1
     9     5     6    1
    10     5    24    1
    11     5     7    1
    12     7     8    1
    13     7    31    1
    14     7    32    1
    15     8     9    1
    16     8    33    1
    17     8    34    1
    18     9    10    1
    19     9    11    1
    20     9    23    1
    21    11    12   am
    22    11    35    1
    23    12    13    2
    24    12    14    1
    25    14    15    1
    26    14    22    1
    27    14    16    1
    28    16    17    1
    29    16    36    1
    30    16    37    1
    31    17    18    1
    32    17    38    1
    33    17    39    1
    34    18    19    1
    35    18    40    1
    36    18    41    1
    37    19    21    1
    38    19    20    1
    39    19    22    1
    40    20    21    1
    41    20    42    1
    42    20    43    1
    43    21    44    1
    44    21    45    1
    45    22    46    1
    46    22    47    1
    47    23    24    1
    48    23    48    1
    49    23    49    1
    50    24    50    1
    51    24    51    1
    52    25    26    1
    53    25    27    1
    54    25    52    1
@<TRIPOS>SUBSTRUCTURE
     1 ZINC001060733018        1 TEMP              0 ****  ****    0 ROOT


##########                                Name:    ZINC000464706598
##########                DOCK_Rotatable_Bonds:                   4
##########                         Heavy_Atoms:                  26
##########                    Molecular_Weight:             412.286
##########                DOCK_Rotatable_Bonds:                   4
##########                       Formal_Charge:           0.0100001
##########                     HBond_Acceptors:                   5
##########                        HBond_Donors:                   0
##########                         Heavy_Atoms:                  26
##########                          Grid_Score:          -25.606602
##########                     Grid_vdw_energy:          -24.910551
##########                      Grid_es_energy:           -0.696051
##########           Internal_energy_repulsive:           63.285000

@<TRIPOS>MOLECULE
ZINC000464706598
 44 47 1 0 0
SMALL
USER_CHARGES


@<TRIPOS>ATOM
      1 O1          2.9348    0.9192   50.4108 O.2     1  ZINC000464706598   -0.5000
      2 C2          2.2442    1.8322   50.8209 C.2     1  ZINC000464706598    0.5900
      3 C3          0.8391    1.9450   50.3895 C.2     1  ZINC000464706598   -0.2800
      4 C4         -0.2587    2.1154   51.2093 C.2     1  ZINC000464706598    0.1300
      5 N5         -1.3458    2.1709   50.4187 N.pl3   1  ZINC000464706598   -0.3100
      6 C6         -2.6678    2.3376   50.8540 C.ar    1  ZINC000464706598    0.1700
      7 C7         -3.7123    2.2872   49.9405 C.ar    1  ZINC000464706598   -0.1300
      8 C8         -5.0139    2.4513   50.3720 C.ar    1  ZINC000464706598   -0.0600
      9 C9         -5.2776    2.6663   51.7131 C.ar    1  ZINC000464706598   -0.1000
     10 Br10       -7.0610    2.8912   52.3003 Br      1  ZINC000464706598   -0.0400
     11 C11        -4.2386    2.7165   52.6255 C.ar    1  ZINC000464706598   -0.0700
     12 C12        -2.9356    2.5478   52.2000 C.ar    1  ZINC000464706598   -0.1100
     13 N13        -0.9336    2.0348   49.0884 N.2     1  ZINC000464706598   -0.2800
     14 C14         0.3644    1.9051   49.0589 C.2     1  ZINC000464706598    0.0700
     15 N15         2.7617    2.7378   51.6746 N.am    1  ZINC000464706598   -0.6100
     16 C16         1.9438    3.8475   52.1893 C.3     1  ZINC000464706598    0.0400
     17 C17         2.7159    5.1551   51.9791 C.3     1  ZINC000464706598    0.0500
     18 O18         4.0267    5.0222   52.5338 O.3     1  ZINC000464706598   -0.3700
     19 C19         4.8252    4.0119   51.9128 C.3     1  ZINC000464706598    0.0500
     20 C20         4.1597    2.6425   52.1240 C.3     1  ZINC000464706598    0.1600
     21 H21         4.1941    2.3767   53.1806 H       1  ZINC000464706598    0.0900
     22 C22         4.8818    1.5969   51.3139 C.ar    1  ZINC000464706598   -0.0500
     23 C23         5.1702    0.3662   51.8737 C.ar    1  ZINC000464706598   -0.1000
     24 C24         5.8325   -0.5929   51.1307 C.ar    1  ZINC000464706598   -0.1100
     25 C25         6.2061   -0.3216   49.8277 C.ar    1  ZINC000464706598   -0.1200
     26 C26         5.9169    0.9086   49.2676 C.ar    1  ZINC000464706598   -0.1100
     27 C27         5.2507    1.8662   50.0092 C.ar    1  ZINC000464706598   -0.1000
     28 H28        -0.2470    2.1897   52.2867 H       1  ZINC000464706598    0.1900
     29 H29        -3.5070    2.1201   48.8934 H       1  ZINC000464706598    0.1400
     30 H30        -5.8267    2.4122   49.6618 H       1  ZINC000464706598    0.1500
     31 H31        -4.4470    2.8840   53.6718 H       1  ZINC000464706598    0.1500
     32 H32        -2.1249    2.5867   52.9126 H       1  ZINC000464706598    0.1500
     33 H33         0.9695    1.7822   48.1730 H       1  ZINC000464706598    0.2100
     34 H34         0.9984    3.8884   51.6483 H       1  ZINC000464706598    0.1200
     35 H35         1.7531    3.7006   53.2524 H       1  ZINC000464706598    0.0800
     36 H36         2.7915    5.3658   50.9124 H       1  ZINC000464706598    0.0600
     37 H37         2.1914    5.9714   52.4758 H       1  ZINC000464706598    0.1100
     38 H38         4.9086    4.2184   50.8458 H       1  ZINC000464706598    0.0600
     39 H39         5.8184    4.0057   52.3619 H       1  ZINC000464706598    0.1100
     40 H40         4.8783    0.1543   52.8917 H       1  ZINC000464706598    0.1100
     41 H41         6.0584   -1.5542   51.5682 H       1  ZINC000464706598    0.1200
     42 H42         6.7241   -1.0708   49.2474 H       1  ZINC000464706598    0.1200
     43 H43         6.2090    1.1207   48.2497 H       1  ZINC000464706598    0.1200
     44 H44         5.0247    2.8275   49.5717 H       1  ZINC000464706598    0.1100
@<TRIPOS>BOND
     1     1     2    2
     2     2     3    1
     3     2    15   am
     4     3    14    1
     5     3     4    2
     6     4     5    1
     7     4    28    1
     8     5     6    1
     9     5    13    1
    10     6    12   ar
    11     6     7   ar
    12     7     8   ar
    13     7    29    1
    14     8     9   ar
    15     8    30    1
    16     9    10    1
    17     9    11   ar
    18    11    12   ar
    19    11    31    1
    20    12    32    1
    21    13    14    2
    22    14    33    1
    23    15    20    1
    24    15    16    1
    25    16    17    1
    26    16    34    1
    27    16    35    1
    28    17    18    1
    29    17    36    1
    30    17    37    1
    31    18    19    1
    32    19    20    1
    33    19    38    1
    34    19    39    1
    35    20    21    1
    36    20    22    1
    37    22    27   ar
    38    22    23   ar
    39    23    24   ar
    40    23    40    1
    41    24    25   ar
    42    24    41    1
    43    25    26   ar
    44    25    42    1
    45    26    27   ar
    46    26    43    1
    47    27    44    1
@<TRIPOS>SUBSTRUCTURE
     1 ZINC000464706598        1 TEMP              0 ****  ****    0 ROOT


##########                                Name:    ZINC000469391664
##########                DOCK_Rotatable_Bonds:                   6
##########                         Heavy_Atoms:                  29
##########                    Molecular_Weight:             408.524
##########                DOCK_Rotatable_Bonds:                   6
##########                       Formal_Charge:         -0.00999999
##########                     HBond_Acceptors:                   7
##########                        HBond_Donors:                   0
##########                         Heavy_Atoms:                  29
##########                          Grid_Score:          -25.588961
##########                     Grid_vdw_energy:          -23.725033
##########                      Grid_es_energy:           -1.863928
##########           Internal_energy_repulsive:           20.160027

@<TRIPOS>MOLECULE
ZINC000469391664
 53 56 1 0 0
SMALL
USER_CHARGES


@<TRIPOS>ATOM
      1 C1        -15.2784    0.5278   57.1897 C.3     1  ZINC000469391664   -0.1500
      2 C2        -14.1792    0.6507   58.2468 C.3     1  ZINC000469391664   -0.1000
      3 H3        -14.5820    1.1382   59.1346 H       1  ZINC000469391664    0.0800
      4 C4        -13.0243    1.4843   57.6869 C.3     1  ZINC000469391664   -0.1300
      5 C5        -11.9411    1.6342   58.7598 C.3     1  ZINC000469391664    0.1100
      6 N6        -11.5494    0.2972   59.2265 N.am    1  ZINC000469391664   -0.6100
      7 C7        -10.2558   -0.0809   59.2194 C.2     1  ZINC000469391664    0.5600
      8 O8         -9.9445   -1.1902   59.6082 O.2     1  ZINC000469391664   -0.5000
      9 C9         -9.2178    0.8509   58.7400 C.ar    1  ZINC000469391664   -0.1100
     10 C10        -9.1401    1.1793   57.3848 C.ar    1  ZINC000469391664   -0.0900
     11 C11        -8.1681    2.0511   56.9432 C.ar    1  ZINC000469391664   -0.1000
     12 C12        -7.2656    2.6040   57.8371 C.ar    1  ZINC000469391664   -0.0900
     13 C13        -7.3294    2.2885   59.1796 C.ar    1  ZINC000469391664   -0.1000
     14 C14        -8.3056    1.4172   59.6438 C.ar    1  ZINC000469391664    0.1500
     15 N15        -8.3719    1.0977   60.9968 N.am    1  ZINC000469391664   -0.5800
     16 C16        -7.6495   -0.0688   61.5102 C.3     1  ZINC000469391664    0.0900
     17 C17        -9.1007    1.8616   61.8346 C.2     1  ZINC000469391664    0.6100
     18 O18        -9.7010    2.8306   61.4079 O.2     1  ZINC000469391664   -0.5200
     19 C19        -9.1705    1.5253   63.2590 C.2     1  ZINC000469391664   -0.2600
     20 C20        -8.0982    1.3989   64.0973 C.2     1  ZINC000469391664   -0.0500
     21 C21        -8.4510    1.0765   65.3861 C.2     1  ZINC000469391664   -0.1500
     22 C22        -9.7655    0.9428   65.5985 C.2     1  ZINC000469391664   -0.2600
     23 S23       -10.6471    1.2269   64.1657 S.3     1  ZINC000469391664    0.2300
     24 C24       -12.5947   -0.6195   59.7013 C.3     1  ZINC000469391664    0.1000
     25 C25       -13.6704   -0.7442   58.6177 C.3     1  ZINC000469391664    0.1300
     26 H26       -13.2446   -1.2229   57.7358 H       1  ZINC000469391664    0.1000
     27 N27       -14.7828   -1.5522   59.1236 N.pl3   1  ZINC000469391664   -0.4500
     28 C28       -15.1194   -2.8154   58.7179 C.2     1  ZINC000469391664   -0.0500
     29 C29       -16.1971   -3.1816   59.4377 C.2     1  ZINC000469391664   -0.0300
     30 N30       -16.5100   -2.1696   60.2604 N.2     1  ZINC000469391664   -0.4900
     31 C31       -15.6640   -1.1921   60.0815 C.2     1  ZINC000469391664    0.1800
     32 H32       -16.1013   -0.0654   57.5884 H       1  ZINC000469391664    0.0600
     33 H33       -15.6412    1.5212   56.9257 H       1  ZINC000469391664    0.0600
     34 H34       -14.8758    0.0403   56.3018 H       1  ZINC000469391664    0.0600
     35 H35       -12.6048    0.9846   56.8138 H       1  ZINC000469391664    0.0700
     36 H36       -13.3920    2.4698   57.4012 H       1  ZINC000469391664    0.0900
     37 H37       -11.0746    2.1416   58.3358 H       1  ZINC000469391664    0.1000
     38 H38       -12.3329    2.2130   59.5963 H       1  ZINC000469391664    0.0800
     39 H39        -9.8408    0.7505   56.6838 H       1  ZINC000469391664    0.1400
     40 H40        -8.1095    2.3040   55.8950 H       1  ZINC000469391664    0.1400
     41 H41        -6.5073    3.2858   57.4814 H       1  ZINC000469391664    0.1400
     42 H42        -6.6220    2.7234   59.8701 H       1  ZINC000469391664    0.1400
     43 H43        -6.6812    0.2459   61.8993 H       1  ZINC000469391664    0.0600
     44 H44        -8.2288   -0.5323   62.3088 H       1  ZINC000469391664    0.0900
     45 H45        -7.5012   -0.7878   60.7046 H       1  ZINC000469391664    0.0700
     46 H46        -7.0757    1.5382   63.7787 H       1  ZINC000469391664    0.1500
     47 H47        -7.7206    0.9405   66.1700 H       1  ZINC000469391664    0.1400
     48 H48       -10.2093    0.6926   66.5508 H       1  ZINC000469391664    0.1600
     49 H49       -12.1596   -1.5992   59.8986 H       1  ZINC000469391664    0.1000
     50 H50       -13.0398   -0.2246   60.6146 H       1  ZINC000469391664    0.0800
     51 H51       -14.6175   -3.4049   57.9650 H       1  ZINC000469391664    0.1700
     52 H52       -16.7182   -4.1248   59.3651 H       1  ZINC000469391664    0.1700
     53 H53       -15.6716   -0.2488   60.6074 H       1  ZINC000469391664    0.2000
@<TRIPOS>BOND
     1     1     2    1
     2     1    32    1
     3     1    33    1
     4     1    34    1
     5     2     3    1
     6     2    25    1
     7     2     4    1
     8     4     5    1
     9     4    35    1
    10     4    36    1
    11     5     6    1
    12     5    37    1
    13     5    38    1
    14     6     7   am
    15     6    24    1
    16     7     8    2
    17     7     9    1
    18     9    14   ar
    19     9    10   ar
    20    10    11   ar
    21    10    39    1
    22    11    12   ar
    23    11    40    1
    24    12    13   ar
    25    12    41    1
    26    13    14   ar
    27    13    42    1
    28    14    15    1
    29    15    16    1
    30    15    17   am
    31    16    43    1
    32    16    44    1
    33    16    45    1
    34    17    18    2
    35    17    19    1
    36    19    23    1
    37    19    20    2
    38    20    21    1
    39    20    46    1
    40    21    22    2
    41    21    47    1
    42    22    23    1
    43    22    48    1
    44    24    25    1
    45    24    49    1
    46    24    50    1
    47    25    26    1
    48    25    27    1
    49    27    31    1
    50    27    28    1
    51    28    29    2
    52    28    51    1
    53    29    30    1
    54    29    52    1
    55    30    31    2
    56    31    53    1
@<TRIPOS>SUBSTRUCTURE
     1 ZINC000469391664        1 TEMP              0 ****  ****    0 ROOT


##########                                Name:    ZINC001135312623
##########                DOCK_Rotatable_Bonds:                   3
##########                         Heavy_Atoms:                  25
##########                    Molecular_Weight:             341.323
##########                DOCK_Rotatable_Bonds:                   3
##########                       Formal_Charge:        -1.78814e-07
##########                     HBond_Acceptors:                   8
##########                        HBond_Donors:                   2
##########                         Heavy_Atoms:                  25
##########                          Grid_Score:          -25.546913
##########                     Grid_vdw_energy:          -25.474806
##########                      Grid_es_energy:           -0.072108
##########           Internal_energy_repulsive:            5.442102

@<TRIPOS>MOLECULE
ZINC001135312623
 40 42 1 0 0
SMALL
USER_CHARGES


@<TRIPOS>ATOM
      1 C1        -10.7686   -1.3584   55.6184 C.3     1  ZINC001135312623   -0.1300
      2 C2        -11.8170   -0.6106   54.8358 C.ar    1  ZINC001135312623   -0.0600
      3 C3        -13.1090   -0.5268   55.3158 C.ar    1  ZINC001135312623   -0.1000
      4 C4        -14.0720    0.1589   54.5978 C.ar    1  ZINC001135312623   -0.0300
      5 C5        -15.4811    0.2482   55.1247 C.3     1  ZINC001135312623   -0.1300
      6 C6        -13.7445    0.7630   53.3981 C.ar    1  ZINC001135312623   -0.0200
      7 N7        -14.7782    1.4958   52.6330 N.pl3   1  ZINC001135312623    0.0200
      8 O8        -14.7666    1.4710   51.4153 O.2     1  ZINC001135312623   -0.1500
      9 O9        -15.6405    2.1236   53.2211 O.2     1  ZINC001135312623   -0.1500
     10 C10       -12.4537    0.6838   52.9128 C.ar    1  ZINC001135312623   -0.0700
     11 C11       -11.4833    0.0001   53.6335 C.ar    1  ZINC001135312623    0.1500
     12 N12       -10.1755   -0.0820   53.1451 N.am    1  ZINC001135312623   -0.6600
     13 C13        -9.4008    1.0202   53.1048 C.2     1  ZINC001135312623    0.5600
     14 O14        -9.8391    2.0859   53.4930 O.2     1  ZINC001135312623   -0.5000
     15 C15        -8.0209    0.9336   52.5895 C.ar    1  ZINC001135312623   -0.1600
     16 C16        -7.4479   -0.3141   52.3295 C.ar    1  ZINC001135312623   -0.0400
     17 C17        -6.1592   -0.3943   51.8490 C.ar    1  ZINC001135312623   -0.1500
     18 C18        -5.4305    0.7663   51.6229 C.ar    1  ZINC001135312623    0.2000
     19 N19        -4.1231    0.7076   51.1398 N.am    1  ZINC001135312623   -0.6700
     20 C20        -3.3309    1.7952   51.2243 C.2     1  ZINC001135312623    0.6600
     21 O21        -2.2005    1.7501   50.7808 O.2     1  ZINC001135312623   -0.4900
     22 O22        -3.7766    2.9297   51.7933 O.3     1  ZINC001135312623   -0.3400
     23 C23        -5.1836    3.2539   51.6220 C.3     1  ZINC001135312623    0.1100
     24 C24        -6.0004    2.0123   51.8799 C.ar    1  ZINC001135312623   -0.1800
     25 C25        -7.2861    2.1007   52.3549 C.ar    1  ZINC001135312623    0.0000
     26 H26       -10.2769   -0.6759   56.3116 H       1  ZINC001135312623    0.0900
     27 H27       -11.2400   -2.1668   56.1774 H       1  ZINC001135312623    0.0800
     28 H28       -10.0302   -1.7735   54.9324 H       1  ZINC001135312623    0.0700
     29 H29       -13.3680   -0.9976   56.2526 H       1  ZINC001135312623    0.1500
     30 H30       -15.5569    1.0850   55.8191 H       1  ZINC001135312623    0.0900
     31 H31       -16.1703    0.4013   54.2944 H       1  ZINC001135312623    0.0800
     32 H32       -15.7349   -0.6771   55.6418 H       1  ZINC001135312623    0.0800
     33 H33       -12.1987    1.1559   51.9755 H       1  ZINC001135312623    0.1700
     34 H34        -9.8259   -0.9320   52.8353 H       1  ZINC001135312623    0.4200
     35 H35        -8.0153   -1.2161   52.5056 H       1  ZINC001135312623    0.1400
     36 H36        -5.7160   -1.3585   51.6486 H       1  ZINC001135312623    0.1500
     37 H37        -3.7856   -0.1117   50.7453 H       1  ZINC001135312623    0.4300
     38 H38        -5.4683    4.0325   52.3298 H       1  ZINC001135312623    0.1300
     39 H39        -5.3576    3.6011   50.6035 H       1  ZINC001135312623    0.1000
     40 H40        -7.7266    3.0673   52.5502 H       1  ZINC001135312623    0.1500
@<TRIPOS>BOND
     1     1     2    1
     2     1    26    1
     3     1    27    1
     4     1    28    1
     5     2    11   ar
     6     2     3   ar
     7     3     4   ar
     8     3    29    1
     9     4     5    1
    10     4     6   ar
    11     5    30    1
    12     5    31    1
    13     5    32    1
    14     6     7    1
    15     6    10   ar
    16     7     8    2
    17     7     9    2
    18    10    11   ar
    19    10    33    1
    20    11    12    1
    21    12    13   am
    22    12    34    1
    23    13    14    2
    24    13    15    1
    25    15    25   ar
    26    15    16   ar
    27    16    17   ar
    28    16    35    1
    29    17    18   ar
    30    17    36    1
    31    18    24   ar
    32    18    19    1
    33    19    20   am
    34    19    37    1
    35    20    21    2
    36    20    22    1
    37    22    23    1
    38    23    24    1
    39    23    38    1
    40    23    39    1
    41    24    25   ar
    42    25    40    1
@<TRIPOS>SUBSTRUCTURE
     1 ZINC001135312623        1 TEMP              0 ****  ****    0 ROOT


##########                                Name:    ZINC000840649129
##########                DOCK_Rotatable_Bonds:                   8
##########                         Heavy_Atoms:                  26
##########                    Molecular_Weight:             376.839
##########                DOCK_Rotatable_Bonds:                   8
##########                       Formal_Charge:          -0.0199998
##########                     HBond_Acceptors:                   7
##########                        HBond_Donors:                   3
##########                         Heavy_Atoms:                  26
##########                          Grid_Score:          -25.486769
##########                     Grid_vdw_energy:          -25.228563
##########                      Grid_es_energy:           -0.258206
##########           Internal_energy_repulsive:           16.584721

@<TRIPOS>MOLECULE
ZINC000840649129
 47 48 1 0 0
SMALL
USER_CHARGES


@<TRIPOS>ATOM
      1 C1        -11.0280    3.0695   52.0874 C.3     1  ZINC000840649129    0.0200
      2 O2         -9.9879    2.8588   53.0444 O.3     1  ZINC000840649129   -0.2900
      3 C3         -8.9793    2.0247   52.6846 C.ar    1  ZINC000840649129    0.1400
      4 C4         -7.9126    2.5049   51.9404 C.ar    1  ZINC000840649129   -0.1700
      5 C5         -6.8859    1.6583   51.5734 C.ar    1  ZINC000840649129   -0.1200
      6 C6         -6.9124    0.3187   51.9469 C.ar    1  ZINC000840649129    0.1700
      7 N7         -5.8668   -0.5320   51.5702 N.pl3   1  ZINC000840649129   -0.8800
      8 C8         -7.9703   -0.1750   52.6907 C.ar    1  ZINC000840649129   -0.1000
      9 C9         -9.0109    0.6771   53.0694 C.ar    1  ZINC000840649129   -0.1200
     10 C10       -10.1409    0.1595   53.8620 C.2     1  ZINC000840649129    0.5100
     11 O11       -11.2175   -0.0320   53.3320 O.2     1  ZINC000840649129   -0.4800
     12 O12        -9.9799   -0.1014   55.1741 O.3     1  ZINC000840649129   -0.3200
     13 C13       -11.1640   -0.0261   56.0113 C.3     1  ZINC000840649129    0.0800
     14 H14       -11.9017    0.6231   55.5398 H       1  ZINC000840649129    0.1200
     15 C15       -10.7909    0.5338   57.3598 C.2     1  ZINC000840649129    0.5200
     16 O16       -11.5811    1.2222   57.9704 O.2     1  ZINC000840649129   -0.4900
     17 N17        -9.5793    0.2694   57.8874 N.am    1  ZINC000840649129   -0.6600
     18 C18        -9.2326    0.7894   59.1400 C.ar    1  ZINC000840649129    0.1600
     19 C19        -9.8896    0.3506   60.2812 C.ar    1  ZINC000840649129   -0.1400
     20 C20        -9.5451    0.8653   61.5163 C.ar    1  ZINC000840649129   -0.0900
     21 C21        -8.5469    1.8166   61.6168 C.ar    1  ZINC000840649129   -0.1300
     22 C22        -7.8902    2.2569   60.4820 C.ar    1  ZINC000840649129   -0.0900
     23 C23        -8.2259    1.7420   59.2444 C.ar    1  ZINC000840649129   -0.0700
     24 Cl24       -7.4009    2.2944   57.8202 Cl      1  ZINC000840649129   -0.0700
     25 C25       -11.7547   -1.4266   56.1863 C.3     1  ZINC000840649129   -0.1100
     26 C26       -10.6210   -2.4437   56.3315 C.3     1  ZINC000840649129   -0.1600
     27 C27       -12.6310   -1.4574   57.4402 C.3     1  ZINC000840649129   -0.1500
     28 H28       -11.7685    3.7547   52.5005 H       1  ZINC000840649129    0.1000
     29 H29       -10.6045    3.4971   51.1787 H       1  ZINC000840649129    0.0600
     30 H30       -11.5047    2.1176   51.8533 H       1  ZINC000840649129    0.0600
     31 H31        -7.8852    3.5437   51.6468 H       1  ZINC000840649129    0.1400
     32 H32        -6.0579    2.0380   50.9931 H       1  ZINC000840649129    0.1300
     33 H33        -5.1247   -0.1872   51.0492 H       1  ZINC000840649129    0.4000
     34 H34        -5.8842   -1.4664   51.8300 H       1  ZINC000840649129    0.4000
     35 H35        -7.9896   -1.2152   52.9804 H       1  ZINC000840649129    0.1400
     36 H36        -8.9473   -0.2813   57.3991 H       1  ZINC000840649129    0.4200
     37 H37       -10.6698   -0.3923   60.2039 H       1  ZINC000840649129    0.1700
     38 H38       -10.0564    0.5243   62.4043 H       1  ZINC000840649129    0.1300
     39 H39        -8.2798    2.2171   62.5835 H       1  ZINC000840649129    0.1300
     40 H40        -7.1111    3.0004   60.5638 H       1  ZINC000840649129    0.1400
     41 H41       -12.3588   -1.6777   55.3146 H       1  ZINC000840649129    0.0900
     42 H42        -9.9444   -2.1232   57.1237 H       1  ZINC000840649129    0.0700
     43 H43       -11.0379   -3.4191   56.5823 H       1  ZINC000840649129    0.0800
     44 H44       -10.0730   -2.5135   55.3918 H       1  ZINC000840649129    0.0600
     45 H45       -13.4387   -0.7327   57.3369 H       1  ZINC000840649129    0.0500
     46 H46       -13.0518   -2.4551   57.5649 H       1  ZINC000840649129    0.0600
     47 H47       -12.0269   -1.2062   58.3120 H       1  ZINC000840649129    0.0700
@<TRIPOS>BOND
     1     1     2    1
     2     1    28    1
     3     1    29    1
     4     1    30    1
     5     2     3    1
     6     3     9   ar
     7     3     4   ar
     8     4     5   ar
     9     4    31    1
    10     5     6   ar
    11     5    32    1
    12     6     7    1
    13     6     8   ar
    14     7    33    1
    15     7    34    1
    16     8     9   ar
    17     8    35    1
    18     9    10    1
    19    10    11    2
    20    10    12    1
    21    12    13    1
    22    13    14    1
    23    13    15    1
    24    13    25    1
    25    15    16    2
    26    15    17   am
    27    17    18    1
    28    17    36    1
    29    18    23   ar
    30    18    19   ar
    31    19    20   ar
    32    19    37    1
    33    20    21   ar
    34    20    38    1
    35    21    22   ar
    36    21    39    1
    37    22    23   ar
    38    22    40    1
    39    23    24    1
    40    25    26    1
    41    25    27    1
    42    25    41    1
    43    26    42    1
    44    26    43    1
    45    26    44    1
    46    27    45    1
    47    27    46    1
    48    27    47    1
@<TRIPOS>SUBSTRUCTURE
     1 ZINC000840649129        1 TEMP              0 ****  ****    0 ROOT


##########                                Name:    ZINC001231746020
##########                DOCK_Rotatable_Bonds:                   3
##########                         Heavy_Atoms:                  19
##########                    Molecular_Weight:             348.667
##########                DOCK_Rotatable_Bonds:                   3
##########                       Formal_Charge:          -0.0399997
##########                     HBond_Acceptors:                   4
##########                        HBond_Donors:                   2
##########                         Heavy_Atoms:                  19
##########                          Grid_Score:          -25.333523
##########                     Grid_vdw_energy:          -24.083040
##########                      Grid_es_energy:           -1.250482
##########           Internal_energy_repulsive:           10.529241

@<TRIPOS>MOLECULE
ZINC001231746020
 38 39 1 0 0
SMALL
USER_CHARGES


@<TRIPOS>ATOM
      1 C1         -6.6952   -0.7790   51.9768 C.3     1  ZINC001231746020   -0.1500
      2 C2         -6.1434    0.6425   52.1027 C.3     1  ZINC001231746020   -0.0900
      3 H3         -5.1076    0.6036   52.4402 H       1  ZINC001231746020    0.0800
      4 C4         -6.2129    1.3308   50.7658 C.3     1  ZINC001231746020   -0.1400
      5 C5         -5.0867    2.3565   50.5439 C.3     1  ZINC001231746020   -0.0100
      6 N6         -4.8134    3.1995   51.7276 N.4     1  ZINC001231746020   -0.3800
      7 H7         -4.2572    2.6729   52.3845 H       1  ZINC001231746020    0.4100
      8 C8         -4.0577    4.3861   51.3052 C.3     1  ZINC001231746020    0.0700
      9 C9         -2.5994    4.1965   51.6345 C.ar    1  ZINC001231746020   -0.3100
     10 C10        -1.8504    3.2658   50.9388 C.ar    1  ZINC001231746020   -0.0300
     11 C11        -0.5120    3.0900   51.2385 C.ar    1  ZINC001231746020   -0.1600
     12 Cl12        0.4279    1.9211   50.3646 Cl      1  ZINC001231746020   -0.0800
     13 C13         0.0790    3.8487   52.2391 C.ar    1  ZINC001231746020    0.3100
     14 O14         1.3947    3.6783   52.5357 O.3     1  ZINC001231746020   -0.6300
     15 C15        -0.6756    4.7819   52.9361 C.ar    1  ZINC001231746020   -0.2100
     16 Br16        0.1252    5.8180   54.3004 Br      1  ZINC001231746020   -0.0600
     17 C17        -2.0116    4.9577   52.6281 C.ar    1  ZINC001231746020   -0.0200
     18 C18        -6.0289    3.6241   52.3787 C.3     1  ZINC001231746020   -0.0200
     19 C19        -6.3053    2.6556   53.5401 C.3     1  ZINC001231746020   -0.1800
     20 C20        -6.9945    1.4413   53.1214 C.3     1  ZINC001231746020    0.1000
     21 H21        -7.1846    0.8183   53.9954 H       1  ZINC001231746020    0.0700
     22 O22        -8.2408    1.7936   52.5176 O.3     1  ZINC001231746020   -0.5600
     23 H23        -6.1023   -1.3360   51.2513 H       1  ZINC001231746020    0.0600
     24 H24        -7.7323   -0.7380   51.6437 H       1  ZINC001231746020    0.0700
     25 H25        -6.6441   -1.2758   52.9457 H       1  ZINC001231746020    0.0600
     26 H26        -6.1570    0.5761   49.9814 H       1  ZINC001231746020    0.1000
     27 H27        -7.1709    1.8446   50.6871 H       1  ZINC001231746020    0.1000
     28 H28        -4.1748    1.8214   50.2788 H       1  ZINC001231746020    0.1200
     29 H29        -5.3630    3.0033   49.7114 H       1  ZINC001231746020    0.1200
     30 H30        -4.1722    4.5263   50.2303 H       1  ZINC001231746020    0.1200
     31 H31        -4.4371    5.2638   51.8285 H       1  ZINC001231746020    0.1200
     32 H32        -2.3110    2.6757   50.1603 H       1  ZINC001231746020    0.1100
     33 H33        -2.5980    5.6874   53.1667 H       1  ZINC001231746020    0.1100
     34 H34        -5.9068    4.6365   52.7638 H       1  ZINC001231746020    0.1400
     35 H35        -6.8563    3.5966   51.6697 H       1  ZINC001231746020    0.1300
     36 H36        -5.3561    2.3792   53.9993 H       1  ZINC001231746020    0.0900
     37 H37        -6.9179    3.1655   54.2836 H       1  ZINC001231746020    0.1100
     38 H38        -8.1530    2.3398   51.7245 H       1  ZINC001231746020    0.3900
@<TRIPOS>BOND
     1     1     2    1
     2     1    23    1
     3     1    24    1
     4     1    25    1
     5     2     3    1
     6     2    20    1
     7     2     4    1
     8     4     5    1
     9     4    26    1
    10     4    27    1
    11     5     6    1
    12     5    28    1
    13     5    29    1
    14     6     7    1
    15     6     8    1
    16     6    18    1
    17     8     9    1
    18     8    30    1
    19     8    31    1
    20     9    17   ar
    21     9    10   ar
    22    10    11   ar
    23    10    32    1
    24    11    12    1
    25    11    13   ar
    26    13    14    1
    27    13    15   ar
    28    15    16    1
    29    15    17   ar
    30    17    33    1
    31    18    19    1
    32    18    34    1
    33    18    35    1
    34    19    20    1
    35    19    36    1
    36    19    37    1
    37    20    21    1
    38    20    22    1
    39    22    38    1
@<TRIPOS>SUBSTRUCTURE
     1 ZINC001231746020        1 TEMP              0 ****  ****    0 ROOT


##########                                Name:    ZINC001179023006
##########                DOCK_Rotatable_Bonds:                   3
##########                         Heavy_Atoms:                  25
##########                    Molecular_Weight:             340.465
##########                DOCK_Rotatable_Bonds:                   3
##########                       Formal_Charge:          -0.0100005
##########                     HBond_Acceptors:                   4
##########                        HBond_Donors:                   1
##########                         Heavy_Atoms:                  25
##########                          Grid_Score:          -25.183813
##########                     Grid_vdw_energy:          -25.164679
##########                      Grid_es_energy:           -0.019135
##########           Internal_energy_repulsive:           28.050566

@<TRIPOS>MOLECULE
ZINC001179023006
 53 56 1 0 0
SMALL
USER_CHARGES


@<TRIPOS>ATOM
      1 C1        -10.9296   -0.1930   54.4590 C.3     1  ZINC001179023006   -0.1500
      2 C2        -10.7591    0.8054   53.3123 C.3     1  ZINC001179023006   -0.1100
      3 C3        -10.4073    2.1811   53.8820 C.3     1  ZINC001179023006   -0.1100
      4 C4         -9.0375    2.2220   54.5089 C.2     1  ZINC001179023006    0.5400
      5 O5         -8.9229    2.3802   55.7059 O.2     1  ZINC001179023006   -0.5400
      6 N6         -7.9397    2.0826   53.7395 N.am    1  ZINC001179023006   -0.5900
      7 C7         -6.5972    2.1261   54.3346 C.3     1  ZINC001179023006    0.1000
      8 C8         -5.7583    3.1671   53.5971 C.3     1  ZINC001179023006   -0.1200
      9 C9         -5.7603    2.8485   52.0949 C.3     1  ZINC001179023006   -0.0500
     10 C10        -7.2033    2.9400   51.5771 C.3     1  ZINC001179023006   -0.1100
     11 C11        -8.0613    1.8899   52.2881 C.3     1  ZINC001179023006    0.0900
     12 C12        -4.9076    3.8764   51.3680 C.3     1  ZINC001179023006   -0.0800
     13 C13        -3.5109    3.9183   51.9084 C.ar    1  ZINC001179023006   -0.0700
     14 C14        -3.1293    5.0107   52.6806 C.ar    1  ZINC001179023006   -0.1100
     15 C15        -1.8695    5.0492   53.2450 C.ar    1  ZINC001179023006   -0.1100
     16 C16        -0.9843    4.0067   53.0446 C.ar    1  ZINC001179023006   -0.1200
     17 C17        -1.3617    2.9282   52.2643 C.ar    1  ZINC001179023006   -0.1000
     18 C18        -2.6232    2.9054   51.6967 C.ar    1  ZINC001179023006   -0.1100
     19 C19        -3.0293    1.7465   50.8224 C.3     1  ZINC001179023006    0.1400
     20 N20        -4.1279    1.0036   51.3989 N.am    1  ZINC001179023006   -0.7000
     21 C21        -5.2536    1.4560   51.8883 C.2     1  ZINC001179023006    0.5200
     22 O22        -6.0265    0.5896   52.2385 O.2     1  ZINC001179023006   -0.5500
     23 C23       -11.5098    2.7801   54.7711 C.3     1  ZINC001179023006   -0.1200
     24 C24       -11.1928    4.1352   54.1128 C.3     1  ZINC001179023006   -0.1400
     25 C25       -10.6722    3.3386   52.9048 C.3     1  ZINC001179023006   -0.1300
     26 H26       -11.1424   -1.1813   54.0516 H       1  ZINC001179023006    0.0600
     27 H27       -10.0122   -0.2319   55.0463 H       1  ZINC001179023006    0.0500
     28 H28       -11.7557    0.1230   55.0961 H       1  ZINC001179023006    0.0600
     29 H29       -11.6893    0.8729   52.7481 H       1  ZINC001179023006    0.0700
     30 H30        -9.9583    0.4691   52.6538 H       1  ZINC001179023006    0.0700
     31 H31        -6.6729    2.3991   55.3871 H       1  ZINC001179023006    0.0900
     32 H32        -6.1247    1.1482   54.2421 H       1  ZINC001179023006    0.0800
     33 H33        -4.7353    3.1446   53.9727 H       1  ZINC001179023006    0.0800
     34 H34        -6.1842    4.1572   53.7599 H       1  ZINC001179023006    0.0800
     35 H35        -7.2172    2.7550   50.5030 H       1  ZINC001179023006    0.0800
     36 H36        -7.6016    3.9341   51.7805 H       1  ZINC001179023006    0.0800
     37 H37        -7.7129    0.8921   52.0216 H       1  ZINC001179023006    0.1200
     38 H38        -9.1032    2.0068   51.9901 H       1  ZINC001179023006    0.0800
     39 H39        -4.8714    3.6231   50.3084 H       1  ZINC001179023006    0.0800
     40 H40        -5.3624    4.8604   51.4817 H       1  ZINC001179023006    0.0900
     41 H41        -3.8177    5.8276   52.8390 H       1  ZINC001179023006    0.1200
     42 H42        -1.5746    5.8974   53.8450 H       1  ZINC001179023006    0.1200
     43 H43        -0.0031    4.0338   53.4950 H       1  ZINC001179023006    0.1300
     44 H44        -0.6762    2.1102   52.0993 H       1  ZINC001179023006    0.1300
     45 H45        -2.1763    1.0797   50.6965 H       1  ZINC001179023006    0.0900
     46 H46        -3.3300    2.1258   49.8457 H       1  ZINC001179023006    0.0800
     47 H47        -4.0149    0.0406   51.4267 H       1  ZINC001179023006    0.4000
     48 H48       -12.5074    2.4059   54.5414 H       1  ZINC001179023006    0.0900
     49 H49       -11.2786    2.7461   55.8358 H       1  ZINC001179023006    0.0800
     50 H50       -10.4173    4.6998   54.6305 H       1  ZINC001179023006    0.0800
     51 H51       -12.0767    4.7338   53.8930 H       1  ZINC001179023006    0.0700
     52 H52        -9.7659    3.7550   52.4650 H       1  ZINC001179023006    0.0700
     53 H53       -11.4405    3.1174   52.1638 H       1  ZINC001179023006    0.0900
@<TRIPOS>BOND
     1     1     2    1
     2     1    26    1
     3     1    27    1
     4     1    28    1
     5     2     3    1
     6     2    29    1
     7     2    30    1
     8     3    25    1
     9     3     4    1
    10     3    23    1
    11     4     5    2
    12     4     6   am
    13     6    11    1
    14     6     7    1
    15     7     8    1
    16     7    31    1
    17     7    32    1
    18     8     9    1
    19     8    33    1
    20     8    34    1
    21     9    21    1
    22     9    10    1
    23     9    12    1
    24    10    11    1
    25    10    35    1
    26    10    36    1
    27    11    37    1
    28    11    38    1
    29    12    13    1
    30    12    39    1
    31    12    40    1
    32    13    18   ar
    33    13    14   ar
    34    14    15   ar
    35    14    41    1
    36    15    16   ar
    37    15    42    1
    38    16    17   ar
    39    16    43    1
    40    17    18   ar
    41    17    44    1
    42    18    19    1
    43    19    20    1
    44    19    45    1
    45    19    46    1
    46    20    21   am
    47    20    47    1
    48    21    22    2
    49    23    24    1
    50    23    48    1
    51    23    49    1
    52    24    25    1
    53    24    50    1
    54    24    51    1
    55    25    52    1
    56    25    53    1
@<TRIPOS>SUBSTRUCTURE
     1 ZINC001179023006        1 TEMP              0 ****  ****    0 ROOT


##########                                Name:    ZINC000187810810
##########                DOCK_Rotatable_Bonds:                   7
##########                         Heavy_Atoms:                  27
##########                    Molecular_Weight:             386.414
##########                DOCK_Rotatable_Bonds:                   7
##########                       Formal_Charge:           0.0599998
##########                     HBond_Acceptors:                   8
##########                        HBond_Donors:                   1
##########                         Heavy_Atoms:                  27
##########                          Grid_Score:          -25.078581
##########                     Grid_vdw_energy:          -23.797115
##########                      Grid_es_energy:           -1.281465
##########           Internal_energy_repulsive:           39.465298

@<TRIPOS>MOLECULE
ZINC000187810810
 52 53 1 0 0
SMALL
USER_CHARGES


@<TRIPOS>ATOM
      1 C1        -13.6221   -0.5784   48.8545 C.3     1  ZINC000187810810   -0.1800
      2 C2        -14.9649    0.1472   48.9619 C.3     1  ZINC000187810810    0.1400
      3 C3        -15.0528    1.2209   47.8756 C.3     1  ZINC000187810810   -0.1800
      4 C4        -16.1037   -0.8580   48.7788 C.3     1  ZINC000187810810   -0.1400
      5 O5        -15.0749    0.7705   50.2686 O.3     1  ZINC000187810810   -0.3600
      6 C6        -14.4170    0.1809   51.2846 C.2     1  ZINC000187810810    0.6500
      7 O7        -14.8425   -0.8500   51.7669 O.2     1  ZINC000187810810   -0.5600
      8 N8        -13.2865    0.7341   51.7666 N.am    1  ZINC000187810810   -0.6000
      9 C9        -12.5532    0.0981   52.8696 C.3     1  ZINC000187810810    0.1100
     10 C10       -12.3501    1.1282   53.9852 C.3     1  ZINC000187810810   -0.1400
     11 C11       -11.6660    2.3701   53.4091 C.3     1  ZINC000187810810    0.1800
     12 C12       -11.4303    3.3872   54.5276 C.3     1  ZINC000187810810   -0.1600
     13 N13       -10.3812    1.9891   52.8172 N.am    1  ZINC000187810810   -0.7100
     14 C14        -9.4294    1.4189   53.5822 C.2     1  ZINC000187810810    0.5500
     15 O15        -9.6363    1.2221   54.7637 O.2     1  ZINC000187810810   -0.5100
     16 C16        -8.1334    1.0329   52.9844 C.ar    1  ZINC000187810810   -0.0900
     17 C17        -8.0411   -0.1105   52.1896 C.ar    1  ZINC000187810810   -0.0900
     18 C18        -6.8287   -0.4650   51.6343 C.ar    1  ZINC000187810810   -0.0900
     19 C19        -5.7061    0.3100   51.8644 C.ar    1  ZINC000187810810   -0.0900
     20 C20        -5.7907    1.4447   52.6520 C.ar    1  ZINC000187810810   -0.0800
     21 C21        -6.9980    1.8137   53.2080 C.ar    1  ZINC000187810810   -0.1300
     22 C22        -7.0884    3.0499   54.0650 C.3     1  ZINC000187810810    0.5200
     23 F23        -5.8957    3.7743   53.9658 F       1  ZINC000187810810   -0.1800
     24 F24        -8.1540    3.8438   53.6274 F       1  ZINC000187810810   -0.1600
     25 F25        -7.2995    2.6793   55.3974 F       1  ZINC000187810810   -0.1600
     26 C26       -12.5582    2.9931   52.3330 C.3     1  ZINC000187810810   -0.1500
     27 C27       -12.7605    1.9813   51.1949 C.3     1  ZINC000187810810    0.1300
     28 H28       -12.8108    0.1377   48.9849 H       1  ZINC000187810810    0.0900
     29 H29       -13.5596   -1.3433   49.6284 H       1  ZINC000187810810    0.0600
     30 H30       -13.5395   -1.0464   47.8735 H       1  ZINC000187810810    0.0700
     31 H31       -14.9702    0.7529   46.8946 H       1  ZINC000187810810    0.0700
     32 H32       -16.0094    1.7378   47.9520 H       1  ZINC000187810810    0.0600
     33 H33       -14.2414    1.9370   48.0060 H       1  ZINC000187810810    0.0900
     34 H34       -16.0412   -1.6230   49.5528 H       1  ZINC000187810810    0.0700
     35 H35       -17.0603   -0.3411   48.8554 H       1  ZINC000187810810    0.0700
     36 H36       -16.0211   -1.3260   47.7978 H       1  ZINC000187810810    0.0800
     37 H37       -13.1275   -0.7458   53.2515 H       1  ZINC000187810810    0.1000
     38 H38       -11.5838   -0.2489   52.5118 H       1  ZINC000187810810    0.0700
     39 H39       -13.3173    1.4067   54.4036 H       1  ZINC000187810810    0.0900
     40 H40       -11.7248    0.6984   54.7677 H       1  ZINC000187810810    0.0900
     41 H41       -10.7939    2.9440   55.2935 H       1  ZINC000187810810    0.0600
     42 H42       -10.9431    4.2718   54.1175 H       1  ZINC000187810810    0.0800
     43 H43       -12.3861    3.6704   54.9685 H       1  ZINC000187810810    0.0700
     44 H44       -10.2156    2.1473   51.8746 H       1  ZINC000187810810    0.4000
     45 H45        -8.9167   -0.7167   52.0098 H       1  ZINC000187810810    0.1400
     46 H46        -6.7559   -1.3496   51.0190 H       1  ZINC000187810810    0.1400
     47 H47        -4.7595    0.0280   51.4278 H       1  ZINC000187810810    0.1400
     48 H48        -4.9105    2.0452   52.8280 H       1  ZINC000187810810    0.1500
     49 H49       -13.5234    3.2541   52.7670 H       1  ZINC000187810810    0.0800
     50 H50       -12.0810    3.8907   51.9396 H       1  ZINC000187810810    0.1000
     51 H51       -11.8072    1.7901   50.7021 H       1  ZINC000187810810    0.0700
     52 H52       -13.4736    2.3804   50.4736 H       1  ZINC000187810810    0.1000
@<TRIPOS>BOND
     1     1     2    1
     2     1    28    1
     3     1    29    1
     4     1    30    1
     5     2     3    1
     6     2     4    1
     7     2     5    1
     8     3    31    1
     9     3    32    1
    10     3    33    1
    11     4    34    1
    12     4    35    1
    13     4    36    1
    14     5     6    1
    15     6     7    2
    16     6     8   am
    17     8    27    1
    18     8     9    1
    19     9    10    1
    20     9    37    1
    21     9    38    1
    22    10    11    1
    23    10    39    1
    24    10    40    1
    25    11    12    1
    26    11    13    1
    27    11    26    1
    28    12    41    1
    29    12    42    1
    30    12    43    1
    31    13    14   am
    32    13    44    1
    33    14    15    2
    34    14    16    1
    35    16    21   ar
    36    16    17   ar
    37    17    18   ar
    38    17    45    1
    39    18    19   ar
    40    18    46    1
    41    19    20   ar
    42    19    47    1
    43    20    21   ar
    44    20    48    1
    45    21    22    1
    46    22    23    1
    47    22    24    1
    48    22    25    1
    49    26    27    1
    50    26    49    1
    51    26    50    1
    52    27    51    1
    53    27    52    1
@<TRIPOS>SUBSTRUCTURE
     1 ZINC000187810810        1 TEMP              0 ****  ****    0 ROOT


##########                                Name:    ZINC000950547210
##########                DOCK_Rotatable_Bonds:                   5
##########                         Heavy_Atoms:                  25
##########                    Molecular_Weight:              346.47
##########                DOCK_Rotatable_Bonds:                   5
##########                       Formal_Charge:         5.58794e-07
##########                     HBond_Acceptors:                   5
##########                        HBond_Donors:                   1
##########                         Heavy_Atoms:                  25
##########                          Grid_Score:          -25.050240
##########                     Grid_vdw_energy:          -24.112402
##########                      Grid_es_energy:           -0.937838
##########           Internal_energy_repulsive:           20.211901

@<TRIPOS>MOLECULE
ZINC000950547210
 55 58 1 0 0
SMALL
USER_CHARGES


@<TRIPOS>ATOM
      1 O1         -9.2617    2.2298   55.0112 O.2     1  ZINC000950547210   -0.5200
      2 C2         -9.2004    1.5403   54.0153 C.2     1  ZINC000950547210    0.5200
      3 N3        -10.0999    0.5557   53.8209 N.am    1  ZINC000950547210   -0.7300
      4 C4        -11.1482    0.3144   54.8154 C.3     1  ZINC000950547210    0.1300
      5 H5        -10.8412    0.7291   55.7755 H       1  ZINC000950547210    0.0900
      6 C6        -12.4471    0.9847   54.3614 C.3     1  ZINC000950547210   -0.1300
      7 C7        -13.5339    0.7610   55.4152 C.3     1  ZINC000950547210   -0.1300
      8 C8        -13.7921   -0.7414   55.5658 C.3     1  ZINC000950547210    0.1000
      9 N9        -12.5189   -1.4129   55.8602 N.am    1  ZINC000950547210   -0.6100
     10 C10       -12.3987   -2.2157   56.9362 C.2     1  ZINC000950547210    0.5600
     11 O11       -11.3393   -2.7658   57.1690 O.2     1  ZINC000950547210   -0.5200
     12 C12       -13.5487   -2.4264   57.8289 C.2     1  ZINC000950547210   -0.1400
     13 C13       -14.6067   -3.0673   57.3656 C.2     1  ZINC000950547210   -0.1500
     14 C14       -15.8294   -3.3206   58.2017 C.3     1  ZINC000950547210    0.0900
     15 O15       -15.5308   -3.1130   59.5835 O.3     1  ZINC000950547210   -0.3700
     16 C16       -14.8877   -1.8582   59.8374 C.3     1  ZINC000950547210    0.0600
     17 C17       -13.4772   -1.9100   59.2398 C.3     1  ZINC000950547210   -0.1100
     18 C18       -11.3789   -1.1931   54.9598 C.3     1  ZINC000950547210    0.1000
     19 C19        -8.1220    1.7885   52.9923 C.3     1  ZINC000950547210   -0.1000
     20 H20        -7.9736    0.8888   52.3951 H       1  ZINC000950547210    0.1000
     21 C21        -6.8167    2.1490   53.7045 C.3     1  ZINC000950547210   -0.1100
     22 C22        -6.3651    3.5438   53.2667 C.3     1  ZINC000950547210   -0.0900
     23 C23        -6.1405    3.5555   51.7534 C.3     1  ZINC000950547210   -0.1100
     24 C24        -7.4458    3.1951   51.0413 C.3     1  ZINC000950547210   -0.1100
     25 C25        -8.5407    2.9431   52.0798 C.3     1  ZINC000950547210   -0.0600
     26 C26        -8.7490    4.2060   52.9180 C.3     1  ZINC000950547210   -0.1300
     27 C27        -7.4436    4.5664   53.6302 C.3     1  ZINC000950547210   -0.1200
     28 H28       -10.0531    0.0068   53.0224 H       1  ZINC000950547210    0.4000
     29 H29       -12.2787    2.0541   54.2345 H       1  ZINC000950547210    0.0800
     30 H30       -12.7663    0.5525   53.4130 H       1  ZINC000950547210    0.0700
     31 H31       -13.2047    1.1710   56.3701 H       1  ZINC000950547210    0.0700
     32 H32       -14.4520    1.2584   55.1023 H       1  ZINC000950547210    0.0900
     33 H33       -14.4926   -0.9117   56.3834 H       1  ZINC000950547210    0.0900
     34 H34       -14.2073   -1.1357   54.6382 H       1  ZINC000950547210    0.0700
     35 H35       -14.5927   -3.4227   56.3459 H       1  ZINC000950547210    0.1200
     36 H36       -16.6233   -2.6387   57.8970 H       1  ZINC000950547210    0.0700
     37 H37       -16.1616   -4.3481   58.0540 H       1  ZINC000950547210    0.1100
     38 H38       -15.4573   -1.0539   59.3719 H       1  ZINC000950547210    0.0600
     39 H39       -14.8229   -1.6906   60.9125 H       1  ZINC000950547210    0.1000
     40 H40       -12.8516   -2.5685   59.8425 H       1  ZINC000950547210    0.0900
     41 H41       -13.0485   -0.9080   59.2337 H       1  ZINC000950547210    0.0900
     42 H42       -11.5968   -1.6239   53.9825 H       1  ZINC000950547210    0.0700
     43 H43       -10.4877   -1.6616   55.3774 H       1  ZINC000950547210    0.1000
     44 H44        -6.9767    2.1406   54.7826 H       1  ZINC000950547210    0.0700
     45 H45        -6.0484    1.4205   53.4456 H       1  ZINC000950547210    0.0700
     46 H46        -5.4353    3.8006   53.7741 H       1  ZINC000950547210    0.0700
     47 H47        -5.8188    4.5492   51.4415 H       1  ZINC000950547210    0.0600
     48 H48        -5.3722    2.8270   51.4944 H       1  ZINC000950547210    0.0600
     49 H49        -7.7441    4.0176   50.3911 H       1  ZINC000950547210    0.0700
     50 H50        -7.2974    2.2954   50.4441 H       1  ZINC000950547210    0.0600
     51 H51        -9.4705    2.6863   51.5724 H       1  ZINC000950547210    0.0800
     52 H52        -9.0472    5.0285   52.2679 H       1  ZINC000950547210    0.0600
     53 H53        -9.5289    4.0265   53.6579 H       1  ZINC000950547210    0.0900
     54 H54        -7.6037    4.5580   54.7083 H       1  ZINC000950547210    0.0600
     55 H55        -7.1219    5.5600   53.3183 H       1  ZINC000950547210    0.0600
@<TRIPOS>BOND
     1     1     2    2
     2     2     3   am
     3     2    19    1
     4     3     4    1
     5     3    28    1
     6     4     5    1
     7     4    18    1
     8     4     6    1
     9     6     7    1
    10     6    29    1
    11     6    30    1
    12     7     8    1
    13     7    31    1
    14     7    32    1
    15     8     9    1
    16     8    33    1
    17     8    34    1
    18     9    10   am
    19     9    18    1
    20    10    11    2
    21    10    12    1
    22    12    17    1
    23    12    13    2
    24    13    14    1
    25    13    35    1
    26    14    15    1
    27    14    36    1
    28    14    37    1
    29    15    16    1
    30    16    17    1
    31    16    38    1
    32    16    39    1
    33    17    40    1
    34    17    41    1
    35    18    42    1
    36    18    43    1
    37    19    20    1
    38    19    25    1
    39    19    21    1
    40    21    22    1
    41    21    44    1
    42    21    45    1
    43    22    27    1
    44    22    23    1
    45    22    46    1
    46    23    24    1
    47    23    47    1
    48    23    48    1
    49    24    25    1
    50    24    49    1
    51    24    50    1
    52    25    26    1
    53    25    51    1
    54    26    27    1
    55    26    52    1
    56    26    53    1
    57    27    54    1
    58    27    55    1
@<TRIPOS>SUBSTRUCTURE
     1 ZINC000950547210        1 TEMP              0 ****  ****    0 ROOT


##########                                Name:    ZINC001173835973
##########                DOCK_Rotatable_Bonds:                   4
##########                         Heavy_Atoms:                  26
##########                    Molecular_Weight:             343.388
##########                DOCK_Rotatable_Bonds:                   4
##########                       Formal_Charge:           -0.010001
##########                     HBond_Acceptors:                   6
##########                        HBond_Donors:                   4
##########                         Heavy_Atoms:                  26
##########                          Grid_Score:          -24.951393
##########                     Grid_vdw_energy:          -25.878925
##########                      Grid_es_energy:            0.927532
##########           Internal_energy_repulsive:            7.937201

@<TRIPOS>MOLECULE
ZINC001173835973
 43 46 1 0 0
SMALL
USER_CHARGES


@<TRIPOS>ATOM
      1 C1        -12.4535    1.7764   54.3035 C.3     1  ZINC001173835973   -0.1700
      2 C2        -10.9647    1.6875   54.0873 C.2     1  ZINC001173835973    0.5100
      3 O3        -10.2107    2.3281   54.7890 O.2     1  ZINC001173835973   -0.5200
      4 N4        -10.4711    0.8962   53.1144 N.am    1  ZINC001173835973   -0.6800
      5 C5         -9.0888    0.8137   52.9137 C.ar    1  ZINC001173835973    0.1800
      6 C6         -8.4639   -0.4265   52.8801 C.ar    1  ZINC001173835973   -0.1900
      7 C7         -7.0987   -0.5093   52.6818 C.ar    1  ZINC001173835973   -0.0600
      8 C8         -6.3509    0.6399   52.5159 C.ar    1  ZINC001173835973   -0.1900
      9 C9         -6.9699    1.8843   52.5484 C.ar    1  ZINC001173835973    0.2200
     10 N10        -6.2135    3.0459   52.3807 N.pl3   1  ZINC001173835973   -0.6900
     11 C11        -4.9912    3.1875   53.0479 C.ar    1  ZINC001173835973    0.0400
     12 C12        -4.9735    3.6004   54.3476 C.ar    1  ZINC001173835973    0.2400
     13 N13        -6.1777    3.8792   55.0039 N.pl3   1  ZINC001173835973   -0.8600
     14 C14        -3.7091    3.7531   55.0590 C.ar    1  ZINC001173835973   -0.1100
     15 C15        -3.6846    4.1774   56.3975 C.ar    1  ZINC001173835973   -0.0600
     16 C16        -2.4698    4.3029   57.0154 C.ar    1  ZINC001173835973   -0.1700
     17 C17        -1.3050    4.0123   56.3151 C.ar    1  ZINC001173835973    0.1200
     18 N18        -1.3365    3.6159   55.0631 N.ar    1  ZINC001173835973   -0.4400
     19 C19        -2.4868    3.4747   54.4083 C.ar    1  ZINC001173835973    0.1900
     20 C20        -2.5057    3.0304   53.0097 C.ar    1  ZINC001173835973    0.1300
     21 N21        -1.3730    2.7591   52.3654 N.ar    1  ZINC001173835973   -0.4400
     22 C22        -1.3753    2.3606   51.1136 C.ar    1  ZINC001173835973    0.1000
     23 C23        -2.5589    2.2033   50.4028 C.ar    1  ZINC001173835973   -0.1500
     24 C24        -3.7574    2.4665   51.0097 C.ar    1  ZINC001173835973   -0.0700
     25 C25        -3.7460    2.8866   52.3495 C.ar    1  ZINC001173835973   -0.0400
     26 C26        -8.3417    1.9703   52.7422 C.ar    1  ZINC001173835973   -0.1900
     27 H27       -12.6608    2.4596   55.1272 H       1  ZINC001173835973    0.1000
     28 H28       -12.9310    2.1459   53.3960 H       1  ZINC001173835973    0.0900
     29 H29       -12.8453    0.7881   54.5438 H       1  ZINC001173835973    0.0900
     30 H30       -11.0740    0.3839   52.5534 H       1  ZINC001173835973    0.4100
     31 H31        -9.0457   -1.3272   53.0095 H       1  ZINC001173835973    0.1200
     32 H32        -6.6155   -1.4749   52.6569 H       1  ZINC001173835973    0.1200
     33 H33        -5.2842    0.5718   52.3612 H       1  ZINC001173835973    0.1200
     34 H34        -6.5349    3.7547   51.8017 H       1  ZINC001173835973    0.4000
     35 H35        -7.0230    3.7019   54.5625 H       1  ZINC001173835973    0.4100
     36 H36        -6.1668    4.2497   55.9003 H       1  ZINC001173835973    0.4000
     37 H37        -4.6004    4.3991   56.9254 H       1  ZINC001173835973    0.1400
     38 H38        -2.4165    4.6274   58.0442 H       1  ZINC001173835973    0.1400
     39 H39        -0.3516    4.1149   56.8119 H       1  ZINC001173835973    0.1700
     40 H40        -0.4351    2.1505   50.6254 H       1  ZINC001173835973    0.1600
     41 H41        -2.5335    1.8746   49.3744 H       1  ZINC001173835973    0.1400
     42 H42        -4.6874    2.3503   50.4732 H       1  ZINC001173835973    0.1400
     43 H43        -8.8253    2.9356   52.7675 H       1  ZINC001173835973    0.1400
@<TRIPOS>BOND
     1     1     2    1
     2     1    27    1
     3     1    28    1
     4     1    29    1
     5     2     3    2
     6     2     4   am
     7     4     5    1
     8     4    30    1
     9     5    26   ar
    10     5     6   ar
    11     6     7   ar
    12     6    31    1
    13     7     8   ar
    14     7    32    1
    15     8     9   ar
    16     8    33    1
    17     9    10    1
    18     9    26   ar
    19    10    11    1
    20    10    34    1
    21    11    25   ar
    22    11    12   ar
    23    12    13    1
    24    12    14   ar
    25    13    35    1
    26    13    36    1
    27    14    19   ar
    28    14    15   ar
    29    15    16   ar
    30    15    37    1
    31    16    17   ar
    32    16    38    1
    33    17    18   ar
    34    17    39    1
    35    18    19   ar
    36    19    20   ar
    37    20    25   ar
    38    20    21   ar
    39    21    22   ar
    40    22    23   ar
    41    22    40    1
    42    23    24   ar
    43    23    41    1
    44    24    25   ar
    45    24    42    1
    46    26    43    1
@<TRIPOS>SUBSTRUCTURE
     1 ZINC001173835973        1 TEMP              0 ****  ****    0 ROOT


##########                                Name:    ZINC001091652821
##########                DOCK_Rotatable_Bonds:                   4
##########                         Heavy_Atoms:                  24
##########                    Molecular_Weight:             345.465
##########                DOCK_Rotatable_Bonds:                   4
##########                       Formal_Charge:          -0.0199997
##########                     HBond_Acceptors:                   6
##########                        HBond_Donors:                   0
##########                         Heavy_Atoms:                  24
##########                          Grid_Score:          -24.909613
##########                     Grid_vdw_energy:          -25.089655
##########                      Grid_es_energy:            0.180042
##########           Internal_energy_repulsive:            7.124298

@<TRIPOS>MOLECULE
ZINC001091652821
 47 50 1 0 0
SMALL
USER_CHARGES


@<TRIPOS>ATOM
      1 C1        -13.1826    0.7313   52.6829 C.3     1  ZINC001091652821   -0.1000
      2 C2        -11.7289    0.6980   53.0786 C.2     1  ZINC001091652821   -0.1200
      3 C3        -11.0038   -0.4263   53.0548 C.2     1  ZINC001091652821   -0.2400
      4 S4         -9.4007   -0.1294   53.5578 S.3     1  ZINC001091652821    0.2100
      5 C5         -9.7430    1.5776   53.8039 C.2     1  ZINC001091652821   -0.2700
      6 C6         -8.7800    2.5794   54.2705 C.2     1  ZINC001091652821    0.6100
      7 O7         -8.4301    2.5905   55.4361 O.2     1  ZINC001091652821   -0.5200
      8 N8         -8.2822    3.4882   53.4086 N.am    1  ZINC001091652821   -0.6200
      9 C9         -7.3088    4.5494   53.7139 C.3     1  ZINC001091652821    0.0900
     10 C10        -6.4873    4.7669   52.4326 C.3     1  ZINC001091652821   -0.0900
     11 H11        -6.2695    5.8209   52.2603 H       1  ZINC001091652821    0.1100
     12 C12        -5.2032    3.9145   52.5059 C.3     1  ZINC001091652821    0.0400
     13 N13        -5.0779    3.3052   51.1572 N.3     1  ZINC001091652821   -0.5000
     14 C14        -4.2208    2.1128   51.1957 C.3     1  ZINC001091652821    0.1200
     15 C15        -2.7870    2.5173   50.9687 C.2     1  ZINC001091652821    0.0000
     16 C16        -2.2244    3.6812   51.3338 C.2     1  ZINC001091652821   -0.0800
     17 O17        -0.9348    3.6374   50.9454 O.3     1  ZINC001091652821   -0.2000
     18 C18        -0.7270    2.4546   50.3516 C.2     1  ZINC001091652821    0.1900
     19 C19         0.5794    1.9841   49.7660 C.3     1  ZINC001091652821   -0.0600
     20 N20        -1.8386    1.7759   50.3693 N.2     1  ZINC001091652821   -0.4700
     21 C21        -6.4713    2.9473   50.7880 C.3     1  ZINC001091652821    0.0400
     22 C22        -7.3389    4.1518   51.2922 C.3     1  ZINC001091652821   -0.0700
     23 C23        -7.6544    5.1421   50.1694 C.3     1  ZINC001091652821   -0.1300
     24 C24        -8.6009    3.6094   51.9766 C.3     1  ZINC001091652821    0.1200
     25 C25       -11.0491    1.8218   53.4849 C.2     1  ZINC001091652821   -0.0500
     26 H26       -13.2638    0.9284   51.6140 H       1  ZINC001091652821    0.0700
     27 H27       -13.6433   -0.2298   52.9111 H       1  ZINC001091652821    0.0700
     28 H28       -13.6922    1.5193   53.2374 H       1  ZINC001091652821    0.0700
     29 H29       -11.3828   -1.3929   52.7573 H       1  ZINC001091652821    0.1700
     30 H30        -7.8295    5.4679   53.9848 H       1  ZINC001091652821    0.0800
     31 H31        -6.6558    4.2350   54.5280 H       1  ZINC001091652821    0.0800
     32 H32        -4.3402    4.5452   52.7193 H       1  ZINC001091652821    0.0800
     33 H33        -5.3049    3.1389   53.2650 H       1  ZINC001091652821    0.0500
     34 H34        -4.3125    1.6306   52.1689 H       1  ZINC001091652821    0.0500
     35 H35        -4.5301    1.4177   50.4151 H       1  ZINC001091652821    0.1000
     36 H36        -2.7137    4.4986   51.8427 H       1  ZINC001091652821    0.2100
     37 H37         1.3365    2.7570   49.8988 H       1  ZINC001091652821    0.0900
     38 H38         0.8976    1.0731   50.2729 H       1  ZINC001091652821    0.1000
     39 H39         0.4493    1.7818   48.7029 H       1  ZINC001091652821    0.1000
     40 H40        -6.5645    2.8490   49.7065 H       1  ZINC001091652821    0.0900
     41 H41        -6.7694    2.0222   51.2814 H       1  ZINC001091652821    0.0500
     42 H42        -8.2223    4.6367   49.3882 H       1  ZINC001091652821    0.0600
     43 H43        -8.2419    5.9688   50.5686 H       1  ZINC001091652821    0.0600
     44 H44        -6.7238    5.5260   49.7515 H       1  ZINC001091652821    0.0700
     45 H45        -8.8473    2.6242   51.5805 H       1  ZINC001091652821    0.0900
     46 H46        -9.4344    4.2945   51.8215 H       1  ZINC001091652821    0.0800
     47 H47       -11.5042    2.7989   53.5528 H       1  ZINC001091652821    0.1500
@<TRIPOS>BOND
     1     1     2    1
     2     1    26    1
     3     1    27    1
     4     1    28    1
     5     2    25    1
     6     2     3    2
     7     3     4    1
     8     3    29    1
     9     4     5    1
    10     5     6    1
    11     5    25    2
    12     6     7    2
    13     6     8   am
    14     8    24    1
    15     8     9    1
    16     9    10    1
    17     9    30    1
    18     9    31    1
    19    10    11    1
    20    10    22    1
    21    10    12    1
    22    12    13    1
    23    12    32    1
    24    12    33    1
    25    13    14    1
    26    13    21    1
    27    14    15    1
    28    14    34    1
    29    14    35    1
    30    15    20    1
    31    15    16    2
    32    16    17    1
    33    16    36    1
    34    17    18    1
    35    18    19    1
    36    18    20    2
    37    19    37    1
    38    19    38    1
    39    19    39    1
    40    21    22    1
    41    21    40    1
    42    21    41    1
    43    22    23    1
    44    22    24    1
    45    23    42    1
    46    23    43    1
    47    23    44    1
    48    24    45    1
    49    24    46    1
    50    25    47    1
@<TRIPOS>SUBSTRUCTURE
     1 ZINC001091652821        1 TEMP              0 ****  ****    0 ROOT


##########                                Name:    ZINC001318556452
##########                DOCK_Rotatable_Bonds:                   4
##########                         Heavy_Atoms:                  26
##########                    Molecular_Weight:             368.456
##########                DOCK_Rotatable_Bonds:                   4
##########                       Formal_Charge:          -0.0200005
##########                     HBond_Acceptors:                   6
##########                        HBond_Donors:                   1
##########                         Heavy_Atoms:                  26
##########                          Grid_Score:          -24.684130
##########                     Grid_vdw_energy:          -22.971367
##########                      Grid_es_energy:           -1.712763
##########           Internal_energy_repulsive:           31.472862

@<TRIPOS>MOLECULE
ZINC001318556452
 46 48 1 0 0
SMALL
USER_CHARGES


@<TRIPOS>ATOM
      1 C1         -6.1440    4.6143   52.1996 C.3     1  ZINC001318556452   -0.1300
      2 C2         -6.8734    3.2959   52.2259 C.ar    1  ZINC001318556452   -0.1000
      3 C3         -8.2537    3.2688   52.2002 C.ar    1  ZINC001318556452   -0.0500
      4 C4         -9.0308    4.5589   52.1462 C.3     1  ZINC001318556452   -0.4100
      5 S5        -10.6886    4.2954   52.8338 S.o     1  ZINC001318556452    1.2500
      6 C6        -11.4571    5.9317   52.6845 C.3     1  ZINC001318556452   -0.4900
      7 O7        -10.5818    3.9458   54.2070 O.2     1  ZINC001318556452   -0.8400
      8 C8         -8.9238    2.0592   52.2234 C.ar    1  ZINC001318556452   -0.1200
      9 C9         -8.2146    0.8733   52.2734 C.ar    1  ZINC001318556452   -0.1000
     10 C10        -6.8338    0.8931   52.3004 C.ar    1  ZINC001318556452   -0.1200
     11 C11        -6.1576    2.1060   52.2705 C.ar    1  ZINC001318556452    0.1400
     12 N12        -4.7602    2.1297   52.2972 N.am    1  ZINC001318556452   -0.6600
     13 C13        -4.0734    2.5846   51.2305 C.2     1  ZINC001318556452    0.5600
     14 O14        -4.6689    2.9743   50.2457 O.2     1  ZINC001318556452   -0.5000
     15 C15        -2.5912    2.6098   51.2588 C.2     1  ZINC001318556452   -0.0300
     16 C16        -1.8649    2.1605   50.1930 C.2     1  ZINC001318556452   -0.1600
     17 C17        -0.4056    2.1986   50.2507 C.2     1  ZINC001318556452    0.5300
     18 O18         0.2429    1.7979   49.3004 O.2     1  ZINC001318556452   -0.5200
     19 N19         0.2322    2.6695   51.3363 N.am    1  ZINC001318556452   -0.5200
     20 C20         1.6969    2.6919   51.3546 C.3     1  ZINC001318556452    0.0600
     21 C21        -0.4640    3.1321   52.4324 C.ar    1  ZINC001318556452    0.1800
     22 C22         0.2159    3.6158   53.5471 C.ar    1  ZINC001318556452   -0.1700
     23 C23        -0.4925    4.0752   54.6360 C.ar    1  ZINC001318556452   -0.0600
     24 C24        -1.8805    4.0610   54.6338 C.ar    1  ZINC001318556452   -0.1500
     25 C25        -2.5681    3.5907   53.5509 C.ar    1  ZINC001318556452   -0.0600
     26 C26        -1.8703    3.1250   52.4329 C.ar    1  ZINC001318556452   -0.1100
     27 H27        -5.9528    4.9031   51.1662 H       1  ZINC001318556452    0.0800
     28 H28        -6.7547    5.3770   52.6829 H       1  ZINC001318556452    0.0800
     29 H29        -5.1973    4.5165   52.7308 H       1  ZINC001318556452    0.0700
     30 H30        -8.5124    5.3200   52.7294 H       1  ZINC001318556452    0.1000
     31 H31        -9.1152    4.8892   51.1109 H       1  ZINC001318556452    0.1300
     32 H32       -11.4808    6.2278   51.6357 H       1  ZINC001318556452    0.1100
     33 H33       -12.4745    5.8922   53.0739 H       1  ZINC001318556452    0.1100
     34 H34       -10.8780    6.6585   53.2541 H       1  ZINC001318556452    0.0800
     35 H35       -10.0035    2.0408   52.2028 H       1  ZINC001318556452    0.1200
     36 H36        -8.7410   -0.0696   52.2918 H       1  ZINC001318556452    0.1300
     37 H37        -6.2806   -0.0335   52.3398 H       1  ZINC001318556452    0.1500
     38 H38        -4.2847    1.8187   53.0834 H       1  ZINC001318556452    0.4100
     39 H39        -2.3653    1.7798   49.3149 H       1  ZINC001318556452    0.1600
     40 H40         2.0783    2.2933   50.4145 H       1  ZINC001318556452    0.1000
     41 H41         2.0431    3.7176   51.4815 H       1  ZINC001318556452    0.0800
     42 H42         2.0593    2.0813   52.1817 H       1  ZINC001318556452    0.0800
     43 H43         1.2957    3.6307   53.5584 H       1  ZINC001318556452    0.1400
     44 H44         0.0372    4.4495   55.4995 H       1  ZINC001318556452    0.1300
     45 H45        -2.4213    4.4241   55.4953 H       1  ZINC001318556452    0.1300
     46 H46        -3.6481    3.5829   53.5569 H       1  ZINC001318556452    0.1700
@<TRIPOS>BOND
     1     1     2    1
     2     1    27    1
     3     1    28    1
     4     1    29    1
     5     2    11   ar
     6     2     3   ar
     7     3     4    1
     8     3     8   ar
     9     4     5    1
    10     4    30    1
    11     4    31    1
    12     5     6    1
    13     5     7    2
    14     6    32    1
    15     6    33    1
    16     6    34    1
    17     8     9   ar
    18     8    35    1
    19     9    10   ar
    20     9    36    1
    21    10    11   ar
    22    10    37    1
    23    11    12    1
    24    12    13   am
    25    12    38    1
    26    13    14    2
    27    13    15    1
    28    15    26    1
    29    15    16    2
    30    16    17    1
    31    16    39    1
    32    17    18    2
    33    17    19   am
    34    19    20    1
    35    19    21    1
    36    20    40    1
    37    20    41    1
    38    20    42    1
    39    21    26   ar
    40    21    22   ar
    41    22    23   ar
    42    22    43    1
    43    23    24   ar
    44    23    44    1
    45    24    25   ar
    46    24    45    1
    47    25    26   ar
    48    25    46    1
@<TRIPOS>SUBSTRUCTURE
     1 ZINC001318556452        1 TEMP              0 ****  ****    0 ROOT


##########                                Name:    ZINC000426607143
##########                DOCK_Rotatable_Bonds:                   3
##########                         Heavy_Atoms:                  25
##########                    Molecular_Weight:             419.302
##########                DOCK_Rotatable_Bonds:                   3
##########                       Formal_Charge:         1.49012e-07
##########                     HBond_Acceptors:                   7
##########                        HBond_Donors:                   0
##########                         Heavy_Atoms:                  25
##########                          Grid_Score:          -24.683079
##########                     Grid_vdw_energy:          -22.699173
##########                      Grid_es_energy:           -1.983905
##########           Internal_energy_repulsive:           13.686808

@<TRIPOS>MOLECULE
ZINC000426607143
 40 43 1 0 0
SMALL
USER_CHARGES


@<TRIPOS>ATOM
      1 C1        -17.1943    1.8017   60.8187 C.3     1  ZINC000426607143   -0.0900
      2 C2        -17.8160    0.5782   60.1960 C.2     1  ZINC000426607143    0.1600
      3 N3        -19.0904    0.5082   59.9609 N.2     1  ZINC000426607143   -0.4600
      4 S4        -19.3980   -1.0065   59.2645 S.3     1  ZINC000426607143    0.2900
      5 C5        -17.7661   -1.5499   59.2950 C.2     1  ZINC000426607143   -0.1300
      6 C6        -17.2370   -2.8762   58.8132 C.3     1  ZINC000426607143   -0.0800
      7 C7        -17.0516   -0.5254   59.8413 C.2     1  ZINC000426607143   -0.1200
      8 C8        -15.5843   -0.5881   60.0480 C.2     1  ZINC000426607143    0.2500
      9 N9        -14.8979   -1.6337   60.4315 N.2     1  ZINC000426607143   -0.3700
     10 O10       -13.7197   -1.3548   60.5041 O.3     1  ZINC000426607143    0.0900
     11 C11       -13.5302   -0.0753   60.1672 C.2     1  ZINC000426607143    0.2000
     12 C12       -12.2125    0.6549   60.1304 C.3     1  ZINC000426607143   -0.0300
     13 H13       -11.8077    0.6588   59.1185 H       1  ZINC000426607143    0.1600
     14 C14       -12.3803    2.1009   60.6519 C.3     1  ZINC000426607143   -0.1200
     15 C15       -11.0519    2.3186   61.4097 C.3     1  ZINC000426607143    0.1000
     16 N16       -10.5997    0.9781   61.8004 N.am    1  ZINC000426607143   -0.5800
     17 C17        -9.6351    0.7250   62.7824 C.ar    1  ZINC000426607143    0.1700
     18 C18        -9.9606    0.8508   64.1260 C.ar    1  ZINC000426607143   -0.1000
     19 C19        -9.0062    0.6003   65.0930 C.ar    1  ZINC000426607143   -0.1000
     20 C20        -7.7276    0.2253   64.7243 C.ar    1  ZINC000426607143   -0.1000
     21 C21        -7.3994    0.0989   63.3868 C.ar    1  ZINC000426607143   -0.0900
     22 C22        -8.3508    0.3419   62.4147 C.ar    1  ZINC000426607143   -0.0800
     23 Br23       -7.9014    0.1691   60.5860 Br      1  ZINC000426607143   -0.0400
     24 C24       -11.2299    0.0225   61.0914 C.2     1  ZINC000426607143    0.5300
     25 O25       -11.0396   -1.1696   61.2095 O.2     1  ZINC000426607143   -0.4900
     26 N26       -14.7043    0.4234   59.8698 N.2     1  ZINC000426607143   -0.4600
     27 H27       -16.8984    2.4982   60.0342 H       1  ZINC000426607143    0.0900
     28 H28       -17.9182    2.2821   61.4769 H       1  ZINC000426607143    0.0800
     29 H29       -16.3166    1.5098   61.3953 H       1  ZINC000426607143    0.1100
     30 H30       -18.0599   -3.4762   58.4246 H       1  ZINC000426607143    0.0800
     31 H31       -16.5042   -2.7099   58.0238 H       1  ZINC000426607143    0.0900
     32 H32       -16.7644   -3.4018   59.6430 H       1  ZINC000426607143    0.0900
     33 H33       -12.4777    2.8047   59.8253 H       1  ZINC000426607143    0.1100
     34 H34       -13.2318    2.1753   61.3282 H       1  ZINC000426607143    0.1000
     35 H35       -10.3173    2.7888   60.7558 H       1  ZINC000426607143    0.0900
     36 H36       -11.2186    2.9332   62.2943 H       1  ZINC000426607143    0.0900
     37 H37       -10.9588    1.1443   64.4151 H       1  ZINC000426607143    0.1400
     38 H38        -9.2592    0.6980   66.1384 H       1  ZINC000426607143    0.1400
     39 H39        -6.9834    0.0309   65.4824 H       1  ZINC000426607143    0.1400
     40 H40        -6.3997   -0.1942   63.1020 H       1  ZINC000426607143    0.1400
@<TRIPOS>BOND
     1     1     2    1
     2     1    27    1
     3     1    28    1
     4     1    29    1
     5     2     7    1
     6     2     3    2
     7     3     4    1
     8     4     5    1
     9     5     6    1
    10     5     7    2
    11     6    30    1
    12     6    31    1
    13     6    32    1
    14     7     8    1
    15     8    26    1
    16     8     9    2
    17     9    10    1
    18    10    11    1
    19    11    12    1
    20    11    26    2
    21    12    13    1
    22    12    24    1
    23    12    14    1
    24    14    15    1
    25    14    33    1
    26    14    34    1
    27    15    16    1
    28    15    35    1
    29    15    36    1
    30    16    17    1
    31    16    24   am
    32    17    22   ar
    33    17    18   ar
    34    18    19   ar
    35    18    37    1
    36    19    20   ar
    37    19    38    1
    38    20    21   ar
    39    20    39    1
    40    21    22   ar
    41    21    40    1
    42    22    23    1
    43    24    25    2
@<TRIPOS>SUBSTRUCTURE
     1 ZINC000426607143        1 TEMP              0 ****  ****    0 ROOT


##########                                Name:    ZINC000965273005
##########                DOCK_Rotatable_Bonds:                   7
##########                         Heavy_Atoms:                  27
##########                    Molecular_Weight:             368.436
##########                DOCK_Rotatable_Bonds:                   7
##########                       Formal_Charge:           0.0100003
##########                     HBond_Acceptors:                   7
##########                        HBond_Donors:                   2
##########                         Heavy_Atoms:                  27
##########                          Grid_Score:          -24.678629
##########                     Grid_vdw_energy:          -24.600168
##########                      Grid_es_energy:           -0.078461
##########           Internal_energy_repulsive:           13.603879

@<TRIPOS>MOLECULE
ZINC000965273005
 51 54 1 0 0
SMALL
USER_CHARGES


@<TRIPOS>ATOM
      1 C1         -5.8794    0.2302   51.8227 C.3     1  ZINC000965273005   -0.1200
      2 C2         -7.2650    0.6674   52.2224 C.ar    1  ZINC000965273005   -0.0300
      3 C3         -8.0954   -0.2010   52.9000 C.ar    1  ZINC000965273005   -0.1200
      4 C4         -9.3681    0.1989   53.2677 C.ar    1  ZINC000965273005   -0.0900
      5 C5         -9.8162    1.4708   52.9594 C.ar    1  ZINC000965273005   -0.1300
      6 C6         -8.9957    2.3494   52.2820 C.ar    1  ZINC000965273005   -0.0900
      7 C7         -7.7092    1.9541   51.9129 C.ar    1  ZINC000965273005   -0.1300
      8 C8         -6.8245    2.8902   51.1868 C.2     1  ZINC000965273005    0.5800
      9 O9         -6.4587    2.6285   50.0577 O.2     1  ZINC000965273005   -0.5200
     10 N10        -6.4238    4.0336   51.7771 N.am    1  ZINC000965273005   -0.6100
     11 C11        -6.7852    4.4704   53.1381 C.3     1  ZINC000965273005    0.0900
     12 C12        -5.6494    5.4358   53.5595 C.3     1  ZINC000965273005    0.1500
     13 H13        -5.9955    6.1395   54.3165 H       1  ZINC000965273005    0.1200
     14 N14        -4.4781    4.6939   54.0327 N.am    1  ZINC000965273005   -0.7100
     15 C15        -3.7112    5.2022   55.0175 C.2     1  ZINC000965273005    0.6000
     16 O16        -3.9905    6.2774   55.5123 O.2     1  ZINC000965273005   -0.5400
     17 C17        -2.5334    4.4548   55.4949 C.2     1  ZINC000965273005   -0.2800
     18 C18        -2.4201    3.7843   56.6961 C.2     1  ZINC000965273005    0.1000
     19 N19        -1.1930    3.2413   56.7391 N.pl3   1  ZINC000965273005   -0.3600
     20 C20        -0.6494    2.4402   57.8386 C.3     1  ZINC000965273005    0.1000
     21 N21        -0.5211    3.5689   55.5562 N.2     1  ZINC000965273005   -0.3000
     22 C22        -1.3115    4.2858   54.8059 C.2     1  ZINC000965273005    0.1700
     23 C23        -0.9765    4.8445   53.4470 C.3     1  ZINC000965273005   -0.0800
     24 C24        -1.0499    6.3625   53.2696 C.3     1  ZINC000965273005   -0.1700
     25 C25         0.3099    5.6627   53.3171 C.3     1  ZINC000965273005   -0.1600
     26 C26        -5.3458    6.1620   52.2223 C.3     1  ZINC000965273005    0.0900
     27 H27        -6.0463    6.9815   52.0609 H       1  ZINC000965273005    0.0900
     28 O28        -3.9990    6.6389   52.2004 O.3     1  ZINC000965273005   -0.5500
     29 C29        -5.5487    5.0489   51.1731 C.3     1  ZINC000965273005    0.0600
     30 H30        -5.1642    0.5528   52.5793 H       1  ZINC000965273005    0.0800
     31 H31        -5.8519   -0.8560   51.7364 H       1  ZINC000965273005    0.0700
     32 H32        -5.6199    0.6775   50.8632 H       1  ZINC000965273005    0.0700
     33 H33        -7.7516   -1.1954   53.1437 H       1  ZINC000965273005    0.1300
     34 H34       -10.0144   -0.4851   53.7975 H       1  ZINC000965273005    0.1300
     35 H35       -10.8105    1.7768   53.2493 H       1  ZINC000965273005    0.1300
     36 H36        -9.3469    3.3420   52.0416 H       1  ZINC000965273005    0.1300
     37 H37        -7.7422    4.9920   53.1276 H       1  ZINC000965273005    0.0900
     38 H38        -6.8258    3.6151   53.8127 H       1  ZINC000965273005    0.0900
     39 H39        -4.2545    3.8369   53.6372 H       1  ZINC000965273005    0.4000
     40 H40        -3.1788    3.7106   57.4612 H       1  ZINC000965273005    0.1800
     41 H41        -0.8769    1.3878   57.6686 H       1  ZINC000965273005    0.0800
     42 H42         0.4312    2.5751   57.8868 H       1  ZINC000965273005    0.1000
     43 H43        -1.0979    2.7616   58.7786 H       1  ZINC000965273005    0.0900
     44 H44        -1.2659    4.2239   52.5990 H       1  ZINC000965273005    0.1400
     45 H45        -1.3878    6.7408   52.3049 H       1  ZINC000965273005    0.1000
     46 H46        -1.3404    6.9569   54.1359 H       1  ZINC000965273005    0.1000
     47 H47         0.9138    5.7967   54.2145 H       1  ZINC000965273005    0.0900
     48 H48         0.8665    5.5805   52.3836 H       1  ZINC000965273005    0.1000
     49 H49        -3.7098    6.9611   51.3358 H       1  ZINC000965273005    0.3900
     50 H50        -4.5873    4.6077   50.9101 H       1  ZINC000965273005    0.0800
     51 H51        -6.0258    5.4604   50.2835 H       1  ZINC000965273005    0.0800
@<TRIPOS>BOND
     1     1     2    1
     2     1    30    1
     3     1    31    1
     4     1    32    1
     5     2     7   ar
     6     2     3   ar
     7     3     4   ar
     8     3    33    1
     9     4     5   ar
    10     4    34    1
    11     5     6   ar
    12     5    35    1
    13     6     7   ar
    14     6    36    1
    15     7     8    1
    16     8     9    2
    17     8    10   am
    18    10    29    1
    19    10    11    1
    20    11    12    1
    21    11    37    1
    22    11    38    1
    23    12    13    1
    24    12    14    1
    25    12    26    1
    26    14    15   am
    27    14    39    1
    28    15    16    2
    29    15    17    1
    30    17    22    1
    31    17    18    2
    32    18    19    1
    33    18    40    1
    34    19    20    1
    35    19    21    1
    36    20    41    1
    37    20    42    1
    38    20    43    1
    39    21    22    2
    40    22    23    1
    41    23    25    1
    42    23    24    1
    43    23    44    1
    44    24    25    1
    45    24    45    1
    46    24    46    1
    47    25    47    1
    48    25    48    1
    49    26    27    1
    50    26    28    1
    51    26    29    1
    52    28    49    1
    53    29    50    1
    54    29    51    1
@<TRIPOS>SUBSTRUCTURE
     1 ZINC000965273005        1 TEMP              0 ****  ****    0 ROOT


##########                                Name:    ZINC000618094467
##########                DOCK_Rotatable_Bonds:                   5
##########                         Heavy_Atoms:                  27
##########                    Molecular_Weight:             370.492
##########                DOCK_Rotatable_Bonds:                   5
##########                       Formal_Charge:                0.03
##########                     HBond_Acceptors:                   5
##########                        HBond_Donors:                   0
##########                         Heavy_Atoms:                  27
##########                          Grid_Score:          -24.653597
##########                     Grid_vdw_energy:          -23.691837
##########                      Grid_es_energy:           -0.961760
##########           Internal_energy_repulsive:           82.671951

@<TRIPOS>MOLECULE
ZINC000618094467
 57 59 1 0 0
SMALL
USER_CHARGES


@<TRIPOS>ATOM
      1 C1        -11.1124    3.6041   56.2280 C.3     1  ZINC000618094467   -0.1500
      2 C2         -9.6395    3.3908   56.5829 C.3     1  ZINC000618094467   -0.1000
      3 C3         -9.3622    1.8936   56.7315 C.3     1  ZINC000618094467   -0.1100
      4 H4         -8.2874    1.7171   56.6890 H       1  ZINC000618094467    0.1000
      5 C5         -9.9063    1.4052   58.0756 C.3     1  ZINC000618094467   -0.1500
      6 C6        -10.0391    1.1438   55.6133 C.2     1  ZINC000618094467    0.5200
      7 O7        -11.0284    0.4799   55.8402 O.2     1  ZINC000618094467   -0.5000
      8 N8         -9.5453    1.2110   54.3611 N.am    1  ZINC000618094467   -0.6100
      9 C9         -8.3509    2.0050   54.0539 C.3     1  ZINC000618094467    0.1400
     10 C10        -7.4323    1.2143   53.1566 C.ar    1  ZINC000618094467   -0.1000
     11 C11        -6.1475    1.6994   52.9560 C.ar    1  ZINC000618094467   -0.1100
     12 C12        -5.2641    1.0256   52.1376 C.ar    1  ZINC000618094467   -0.1200
     13 C13        -5.6628   -0.1407   51.5120 C.ar    1  ZINC000618094467   -0.1100
     14 C14        -6.9383   -0.6260   51.7139 C.ar    1  ZINC000618094467   -0.1200
     15 C15        -7.8278    0.0471   52.5422 C.ar    1  ZINC000618094467   -0.0600
     16 C16        -9.1937   -0.5566   52.7370 C.3     1  ZINC000618094467   -0.0800
     17 C17       -10.1794    0.4854   53.2480 C.3     1  ZINC000618094467    0.1200
     18 H18       -10.4231    1.1856   52.4489 H       1  ZINC000618094467    0.1000
     19 C19       -11.4350   -0.1941   53.7307 C.2     1  ZINC000618094467    0.5500
     20 O20       -11.3921   -1.3421   54.1196 O.2     1  ZINC000618094467   -0.5200
     21 N21       -12.6055    0.4739   53.7301 N.am    1  ZINC000618094467   -0.6100
     22 C22       -12.6683    1.8622   53.2554 C.3     1  ZINC000618094467    0.1200
     23 C23       -13.6803    1.9455   52.1056 C.3     1  ZINC000618094467   -0.1600
     24 H24       -13.8826    2.9904   51.8698 H       1  ZINC000618094467    0.1100
     25 C25       -13.1167    1.2389   50.8711 C.3     1  ZINC000618094467   -0.1400
     26 C26       -14.9587    1.2653   52.5436 C.2     1  ZINC000618094467    0.3700
     27 O27       -16.0203    1.8358   52.4672 O.2     1  ZINC000618094467   -0.4400
     28 C28       -14.8750   -0.1472   53.0789 C.3     1  ZINC000618094467   -0.1600
     29 H29       -14.5730   -0.8251   52.2805 H       1  ZINC000618094467    0.1100
     30 C30       -16.2388   -0.5722   53.6269 C.3     1  ZINC000618094467   -0.1400
     31 C31       -13.8342   -0.1801   54.1986 C.3     1  ZINC000618094467    0.1400
     32 H32       -11.7398    3.1952   57.0201 H       1  ZINC000618094467    0.0500
     33 H33       -11.3099    4.6707   56.1221 H       1  ZINC000618094467    0.0600
     34 H34       -11.3368    3.0979   55.2890 H       1  ZINC000618094467    0.0600
     35 H35        -9.0121    3.7996   55.7907 H       1  ZINC000618094467    0.0700
     36 H36        -9.4151    3.8969   57.5218 H       1  ZINC000618094467    0.0700
     37 H37       -10.9496    1.7044   58.1756 H       1  ZINC000618094467    0.0700
     38 H38        -9.8336    0.3186   58.1237 H       1  ZINC000618094467    0.0700
     39 H39        -9.3230    1.8444   58.8849 H       1  ZINC000618094467    0.0700
     40 H40        -8.6467    2.9251   53.5497 H       1  ZINC000618094467    0.0900
     41 H41        -7.8306    2.2507   54.9797 H       1  ZINC000618094467    0.1100
     42 H42        -5.8368    2.6116   53.4438 H       1  ZINC000618094467    0.1300
     43 H43        -4.2655    1.4079   51.9861 H       1  ZINC000618094467    0.1300
     44 H44        -4.9778   -0.6705   50.8667 H       1  ZINC000618094467    0.1200
     45 H45        -7.2482   -1.5370   51.2235 H       1  ZINC000618094467    0.1200
     46 H46        -9.5496   -0.9528   51.7859 H       1  ZINC000618094467    0.0900
     47 H47        -9.1266   -1.3693   53.4604 H       1  ZINC000618094467    0.1000
     48 H48       -12.9863    2.5129   54.0699 H       1  ZINC000618094467    0.0700
     49 H49       -11.6853    2.1717   52.9002 H       1  ZINC000618094467    0.0900
     50 H50       -13.0048    0.1751   51.0808 H       1  ZINC000618094467    0.0600
     51 H51       -13.7991    1.3740   50.0320 H       1  ZINC000618094467    0.0600
     52 H52       -12.1447    1.6641   50.6211 H       1  ZINC000618094467    0.0700
     53 H53       -16.9798   -0.5315   52.8284 H       1  ZINC000618094467    0.0700
     54 H54       -16.1747   -1.5900   54.0116 H       1  ZINC000618094467    0.0700
     55 H55       -16.5336    0.1022   54.4308 H       1  ZINC000618094467    0.0600
     56 H56       -13.6190   -1.2144   54.4672 H       1  ZINC000618094467    0.1100
     57 H57       -14.2165    0.3535   55.0687 H       1  ZINC000618094467    0.0700
@<TRIPOS>BOND
     1     1     2    1
     2     1    32    1
     3     1    33    1
     4     1    34    1
     5     2     3    1
     6     2    35    1
     7     2    36    1
     8     3     4    1
     9     3     5    1
    10     3     6    1
    11     5    37    1
    12     5    38    1
    13     5    39    1
    14     6     7    2
    15     6     8   am
    16     8    17    1
    17     8     9    1
    18     9    10    1
    19     9    40    1
    20     9    41    1
    21    10    15   ar
    22    10    11   ar
    23    11    12   ar
    24    11    42    1
    25    12    13   ar
    26    12    43    1
    27    13    14   ar
    28    13    44    1
    29    14    15   ar
    30    14    45    1
    31    15    16    1
    32    16    17    1
    33    16    46    1
    34    16    47    1
    35    17    18    1
    36    17    19    1
    37    19    20    2
    38    19    21   am
    39    21    31    1
    40    21    22    1
    41    22    23    1
    42    22    48    1
    43    22    49    1
    44    23    24    1
    45    23    25    1
    46    23    26    1
    47    25    50    1
    48    25    51    1
    49    25    52    1
    50    26    27    2
    51    26    28    1
    52    28    29    1
    53    28    30    1
    54    28    31    1
    55    30    53    1
    56    30    54    1
    57    30    55    1
    58    31    56    1
    59    31    57    1
@<TRIPOS>SUBSTRUCTURE
     1 ZINC000618094467        1 TEMP              0 ****  ****    0 ROOT


##########                                Name:    ZINC000521663393
##########                DOCK_Rotatable_Bonds:                   5
##########                         Heavy_Atoms:                  27
##########                    Molecular_Weight:              386.49
##########                DOCK_Rotatable_Bonds:                   5
##########                       Formal_Charge:               -0.02
##########                     HBond_Acceptors:                   6
##########                        HBond_Donors:                   1
##########                         Heavy_Atoms:                  27
##########                          Grid_Score:          -24.469666
##########                     Grid_vdw_energy:          -24.672682
##########                      Grid_es_energy:            0.203016
##########           Internal_energy_repulsive:          107.829941

@<TRIPOS>MOLECULE
ZINC000521663393
 50 53 1 0 0
SMALL
USER_CHARGES


@<TRIPOS>ATOM
      1 C1         -2.4988    2.0143   50.4428 C.3     1  ZINC000521663393   -0.1500
      2 C2         -3.5516    1.7673   51.5252 C.3     1  ZINC000521663393    0.0800
      3 H3         -3.1038    1.8241   52.5174 H       1  ZINC000521663393    0.0900
      4 O4         -4.1956    0.4970   51.3289 O.3     1  ZINC000521663393   -0.2900
      5 C5         -5.4965    0.5885   51.7192 C.ar    1  ZINC000521663393    0.1400
      6 C6         -6.4017   -0.4160   52.0499 C.ar    1  ZINC000521663393   -0.1800
      7 C7         -7.6953   -0.0943   52.4144 C.ar    1  ZINC000521663393    0.1400
      8 F8         -8.5678   -1.0751   52.7333 F       1  ZINC000521663393   -0.1300
      9 C9         -8.1010    1.2291   52.4544 C.ar    1  ZINC000521663393   -0.1800
     10 C10        -7.2045    2.2321   52.1313 C.ar    1  ZINC000521663393   -0.0200
     11 C11        -5.9142    1.9127   51.7712 C.ar    1  ZINC000521663393   -0.2000
     12 C12        -4.7200    2.7726   51.3928 C.3     1  ZINC000521663393    0.1700
     13 H13        -4.8092    3.1341   50.3685 H       1  ZINC000521663393    0.1200
     14 N14        -4.5622    3.8896   52.3275 N.am    1  ZINC000521663393   -0.7200
     15 C15        -5.0812    5.0971   52.0285 C.2     1  ZINC000521663393    0.5300
     16 O16        -5.6802    5.2584   50.9864 O.2     1  ZINC000521663393   -0.5000
     17 C17        -4.9173    6.2465   52.9891 C.3     1  ZINC000521663393    0.1200
     18 H18        -4.8901    7.1837   52.4332 H       1  ZINC000521663393    0.0700
     19 C19        -6.0773    6.2665   53.9511 C.ar    1  ZINC000521663393   -0.0900
     20 C20        -5.9052    6.7592   55.2312 C.ar    1  ZINC000521663393   -0.0900
     21 C21        -6.9692    6.7774   56.1135 C.ar    1  ZINC000521663393   -0.1200
     22 C22        -8.2053    6.3035   55.7157 C.ar    1  ZINC000521663393   -0.1100
     23 C23        -8.3776    5.8117   54.4353 C.ar    1  ZINC000521663393   -0.1200
     24 C24        -7.3146    5.7973   53.5516 C.ar    1  ZINC000521663393   -0.1100
     25 N25        -3.6635    6.0845   53.7373 N.3     1  ZINC000521663393   -0.5300
     26 C26        -2.5039    6.2019   52.8504 C.3     1  ZINC000521663393    0.0500
     27 C27        -1.2418    6.4726   53.6765 C.3     1  ZINC000521663393   -0.0700
     28 S28        -0.9639    5.0585   54.7862 S.3     1  ZINC000521663393   -0.2700
     29 C29        -2.5877    4.8851   55.5874 C.3     1  ZINC000521663393   -0.0700
     30 C30        -3.6645    4.8329   54.4982 C.3     1  ZINC000521663393    0.0600
     31 H31        -2.0735    3.0098   50.5700 H       1  ZINC000521663393    0.0800
     32 H32        -1.7088    1.2681   50.5274 H       1  ZINC000521663393    0.0800
     33 H33        -2.9641    1.9408   49.4599 H       1  ZINC000521663393    0.0700
     34 H34        -6.0921   -1.4503   52.0212 H       1  ZINC000521663393    0.1400
     35 H35        -9.1135    1.4773   52.7366 H       1  ZINC000521663393    0.1400
     36 H36        -7.5165    3.2655   52.1616 H       1  ZINC000521663393    0.1300
     37 H37        -4.0841    3.7604   53.1615 H       1  ZINC000521663393    0.4000
     38 H38        -4.9395    7.1294   55.5420 H       1  ZINC000521663393    0.1300
     39 H39        -6.8346    7.1617   57.1138 H       1  ZINC000521663393    0.1300
     40 H40        -9.0363    6.3172   56.4052 H       1  ZINC000521663393    0.1200
     41 H41        -9.3432    5.4411   54.1245 H       1  ZINC000521663393    0.1300
     42 H42        -7.4492    5.4131   52.5512 H       1  ZINC000521663393    0.1200
     43 H43        -2.3794    5.2740   52.2923 H       1  ZINC000521663393    0.0500
     44 H44        -2.6634    7.0241   52.1527 H       1  ZINC000521663393    0.1000
     45 H45        -0.3866    6.5895   53.0110 H       1  ZINC000521663393    0.1100
     46 H46        -1.3776    7.3795   54.2658 H       1  ZINC000521663393    0.0900
     47 H47        -2.6118    3.9645   56.1707 H       1  ZINC000521663393    0.1100
     48 H48        -2.7674    5.7398   56.2395 H       1  ZINC000521663393    0.1000
     49 H49        -4.6411    4.6911   54.9610 H       1  ZINC000521663393    0.0800
     50 H50        -3.4593    4.0001   53.8258 H       1  ZINC000521663393    0.0500
@<TRIPOS>BOND
     1     1     2    1
     2     1    31    1
     3     1    32    1
     4     1    33    1
     5     2     3    1
     6     2    12    1
     7     2     4    1
     8     4     5    1
     9     5    11   ar
    10     5     6   ar
    11     6     7   ar
    12     6    34    1
    13     7     8    1
    14     7     9   ar
    15     9    10   ar
    16     9    35    1
    17    10    11   ar
    18    10    36    1
    19    11    12    1
    20    12    13    1
    21    12    14    1
    22    14    15   am
    23    14    37    1
    24    15    16    2
    25    15    17    1
    26    17    18    1
    27    17    19    1
    28    17    25    1
    29    19    24   ar
    30    19    20   ar
    31    20    21   ar
    32    20    38    1
    33    21    22   ar
    34    21    39    1
    35    22    23   ar
    36    22    40    1
    37    23    24   ar
    38    23    41    1
    39    24    42    1
    40    25    30    1
    41    25    26    1
    42    26    27    1
    43    26    43    1
    44    26    44    1
    45    27    28    1
    46    27    45    1
    47    27    46    1
    48    28    29    1
    49    29    30    1
    50    29    47    1
    51    29    48    1
    52    30    49    1
    53    30    50    1
@<TRIPOS>SUBSTRUCTURE
     1 ZINC000521663393        1 TEMP              0 ****  ****    0 ROOT


##########                                Name:    ZINC000341804698
##########                DOCK_Rotatable_Bonds:                   7
##########                         Heavy_Atoms:                  24
##########                    Molecular_Weight:             342.318
##########                DOCK_Rotatable_Bonds:                   7
##########                       Formal_Charge:                0.02
##########                     HBond_Acceptors:                   8
##########                        HBond_Donors:                   0
##########                         Heavy_Atoms:                  24
##########                          Grid_Score:          -24.396524
##########                     Grid_vdw_energy:          -24.635225
##########                      Grid_es_energy:            0.238701
##########           Internal_energy_repulsive:           27.017948

@<TRIPOS>MOLECULE
ZINC000341804698
 41 42 1 0 0
SMALL
USER_CHARGES


@<TRIPOS>ATOM
      1 C1         -2.2156    1.7392   50.0485 C.3     1  ZINC000341804698    0.0300
      2 O2         -3.1852    2.3600   50.8951 O.3     1  ZINC000341804698   -0.3900
      3 C3         -4.5331    1.9789   50.6120 C.3     1  ZINC000341804698    0.0700
      4 C4         -5.4314    2.3716   51.7866 C.3     1  ZINC000341804698    0.0400
      5 C5         -4.6169    3.0044   52.8368 C.1     1  ZINC000341804698    0.2200
      6 N6         -3.9884    3.4928   53.6473 N.1     1  ZINC000341804698   -0.4200
      7 C7         -6.4980    3.3578   51.3052 C.3     1  ZINC000341804698   -0.1200
      8 C8         -7.3740    3.7753   52.4907 C.3     1  ZINC000341804698    0.1100
      9 N9         -7.9135    2.5668   53.1287 N.am    1  ZINC000341804698   -0.6000
     10 C10        -9.2396    2.4276   53.3249 C.2     1  ZINC000341804698    0.5700
     11 O11       -10.0017    3.3067   52.9729 O.2     1  ZINC000341804698   -0.5200
     12 C12        -9.7676    1.2056   53.9683 C.ar    1  ZINC000341804698   -0.0900
     13 C13       -10.2351    0.1484   53.1862 C.ar    1  ZINC000341804698   -0.1100
     14 C14       -10.7274   -0.9907   53.7900 C.ar    1  ZINC000341804698   -0.0800
     15 C15       -10.7592   -1.0888   55.1686 C.ar    1  ZINC000341804698   -0.1700
     16 C16       -10.2967   -0.0421   55.9550 C.ar    1  ZINC000341804698    0.1100
     17 O17       -10.3307   -0.1438   57.3099 O.3     1  ZINC000341804698   -0.3100
     18 C18       -10.9361   -1.3168   57.8574 C.3     1  ZINC000341804698    0.6000
     19 F19       -10.9400   -1.2312   59.2537 F       1  ZINC000341804698   -0.1600
     20 F20       -12.2514   -1.4229   57.3929 F       1  ZINC000341804698   -0.1300
     21 F21       -10.2094   -2.4447   57.4614 F       1  ZINC000341804698   -0.1600
     22 C22        -9.7950    1.1027   55.3595 C.ar    1  ZINC000341804698   -0.0700
     23 C23        -6.9800    1.5126   53.5483 C.3     1  ZINC000341804698    0.0900
     24 C24        -6.1086    1.1205   52.3510 C.3     1  ZINC000341804698   -0.1200
     25 H25        -2.2744    0.6567   50.1616 H       1  ZINC000341804698    0.0400
     26 H26        -2.4145    2.0073   49.0109 H       1  ZINC000341804698    0.0500
     27 H27        -1.2186    2.0801   50.3271 H       1  ZINC000341804698    0.0900
     28 H28        -4.8723    2.4871   49.7093 H       1  ZINC000341804698    0.0700
     29 H29        -4.5818    0.9004   50.4620 H       1  ZINC000341804698    0.0600
     30 H30        -6.0148    4.2384   50.8821 H       1  ZINC000341804698    0.1000
     31 H31        -7.1174    2.8816   50.5451 H       1  ZINC000341804698    0.0900
     32 H32        -6.7736    4.3315   53.2107 H       1  ZINC000341804698    0.0700
     33 H33        -8.1947    4.3991   52.1368 H       1  ZINC000341804698    0.1100
     34 H34       -10.2120    0.2219   52.1089 H       1  ZINC000341804698    0.1400
     35 H35       -11.0891   -1.8080   53.1837 H       1  ZINC000341804698    0.1400
     36 H36       -11.1455   -1.9827   55.6357 H       1  ZINC000341804698    0.1400
     37 H37        -9.4346    1.9175   55.9700 H       1  ZINC000341804698    0.1500
     38 H38        -6.3476    1.8844   54.3545 H       1  ZINC000341804698    0.0800
     39 H39        -7.5408    0.6435   53.8922 H       1  ZINC000341804698    0.1100
     40 H40        -6.7315    0.6654   51.5810 H       1  ZINC000341804698    0.1000
     41 H41        -5.3480    0.4087   52.6721 H       1  ZINC000341804698    0.0900
@<TRIPOS>BOND
     1     1     2    1
     2     1    25    1
     3     1    26    1
     4     1    27    1
     5     2     3    1
     6     3     4    1
     7     3    28    1
     8     3    29    1
     9     4    24    1
    10     4     5    1
    11     4     7    1
    12     5     6    3
    13     7     8    1
    14     7    30    1
    15     7    31    1
    16     8     9    1
    17     8    32    1
    18     8    33    1
    19     9    10   am
    20     9    23    1
    21    10    11    2
    22    10    12    1
    23    12    22   ar
    24    12    13   ar
    25    13    14   ar
    26    13    34    1
    27    14    15   ar
    28    14    35    1
    29    15    16   ar
    30    15    36    1
    31    16    17    1
    32    16    22   ar
    33    17    18    1
    34    18    19    1
    35    18    20    1
    36    18    21    1
    37    22    37    1
    38    23    24    1
    39    23    38    1
    40    23    39    1
    41    24    40    1
    42    24    41    1
@<TRIPOS>SUBSTRUCTURE
     1 ZINC000341804698        1 TEMP              0 ****  ****    0 ROOT


##########                                Name:    ZINC000337709254
##########                DOCK_Rotatable_Bonds:                   7
##########                         Heavy_Atoms:                  22
##########                    Molecular_Weight:              329.42
##########                DOCK_Rotatable_Bonds:                   7
##########                       Formal_Charge:           0.0300004
##########                     HBond_Acceptors:                   8
##########                        HBond_Donors:                   2
##########                         Heavy_Atoms:                  22
##########                          Grid_Score:          -24.229399
##########                     Grid_vdw_energy:          -23.267933
##########                      Grid_es_energy:           -0.961465
##########           Internal_energy_repulsive:            8.501691

@<TRIPOS>MOLECULE
ZINC000337709254
 45 46 1 0 0
SMALL
USER_CHARGES


@<TRIPOS>ATOM
      1 C1         -8.0606    2.6371   60.7363 C.3     1  ZINC000337709254   -0.6700
      2 S2         -7.3693    2.4527   59.0694 S.o2    1  ZINC000337709254    2.6100
      3 O3         -6.6607    3.6249   58.6910 O.2     1  ZINC000337709254   -0.9500
      4 O4         -6.7925    1.1640   58.9086 O.2     1  ZINC000337709254   -0.9500
      5 N5         -8.6918    2.4354   58.0731 N.am    1  ZINC000337709254   -1.1200
      6 C6         -8.5164    2.2980   56.6252 C.3     1  ZINC000337709254    0.1200
      7 C7         -9.7758    1.6792   56.0153 C.3     1  ZINC000337709254   -0.1100
      8 H8        -10.1228    0.8443   56.6242 H       1  ZINC000337709254    0.1100
      9 C9        -10.8897    2.7460   55.8731 C.3     1  ZINC000337709254   -0.1200
     10 C10       -11.7820    2.1609   54.7503 C.3     1  ZINC000337709254   -0.1200
     11 C11       -10.7805    1.5260   53.7635 C.3     1  ZINC000337709254   -0.1400
     12 C12        -9.5040    1.2164   54.5690 C.3     1  ZINC000337709254    0.1500
     13 H13        -9.2996    0.1459   54.5480 H       1  ZINC000337709254    0.1000
     14 N14        -8.3679    1.9549   54.0123 N.am    1  ZINC000337709254   -0.7200
     15 C15        -7.6935    1.4582   52.9564 C.2     1  ZINC000337709254    0.5300
     16 O16        -8.0264    0.3991   52.4679 O.2     1  ZINC000337709254   -0.5100
     17 C17        -6.5260    2.2188   52.3825 C.3     1  ZINC000337709254    0.0200
     18 C18        -5.7663    2.8512   53.4732 C.1     1  ZINC000337709254    0.2000
     19 N19        -5.1799    3.3394   54.3148 N.1     1  ZINC000337709254   -0.3900
     20 C20        -5.6162    1.2565   51.6127 C.3     1  ZINC000337709254   -0.1500
     21 C21        -4.4766    2.0497   50.9679 C.3     1  ZINC000337709254    0.0600
     22 O22        -5.0228    3.0554   50.1120 O.3     1  ZINC000337709254   -0.3700
     23 C23        -5.8441    4.0115   50.7853 C.3     1  ZINC000337709254    0.0600
     24 C24        -7.0387    3.2970   51.4228 C.3     1  ZINC000337709254   -0.1300
     25 H25        -8.6258    3.5673   60.7944 H       1  ZINC000337709254    0.1300
     26 H26        -8.7207    1.7967   60.9509 H       1  ZINC000337709254    0.1300
     27 H27        -7.2505    2.6582   61.4654 H       1  ZINC000337709254    0.1300
     28 H28        -9.5827    2.5164   58.4482 H       1  ZINC000337709254    0.4200
     29 H29        -8.3446    3.2802   56.1851 H       1  ZINC000337709254    0.0600
     30 H30        -7.6605    1.6543   56.4224 H       1  ZINC000337709254    0.0900
     31 H31       -11.4518    2.8438   56.8018 H       1  ZINC000337709254    0.0800
     32 H32       -10.4693    3.7056   55.5719 H       1  ZINC000337709254    0.0700
     33 H33       -12.4537    1.4028   55.1529 H       1  ZINC000337709254    0.0700
     34 H34       -12.3488    2.9534   54.2616 H       1  ZINC000337709254    0.0700
     35 H35       -11.1937    0.6044   53.3535 H       1  ZINC000337709254    0.0800
     36 H36       -10.5553    2.2253   52.9584 H       1  ZINC000337709254    0.0700
     37 H37        -8.1009    2.8013   54.4037 H       1  ZINC000337709254    0.4000
     38 H38        -5.2028    0.5181   52.2997 H       1  ZINC000337709254    0.0900
     39 H39        -6.1927    0.7517   50.8376 H       1  ZINC000337709254    0.1100
     40 H40        -3.8763    2.5215   51.7459 H       1  ZINC000337709254    0.0500
     41 H41        -3.8500    1.3761   50.3834 H       1  ZINC000337709254    0.1100
     42 H42        -5.2617    4.5089   51.5610 H       1  ZINC000337709254    0.0500
     43 H43        -6.2027    4.7510   50.0693 H       1  ZINC000337709254    0.1100
     44 H44        -7.6439    2.8334   50.6439 H       1  ZINC000337709254    0.1100
     45 H45        -7.6425    4.0179   51.9740 H       1  ZINC000337709254    0.0900
@<TRIPOS>BOND
     1     1     2    1
     2     1    25    1
     3     1    26    1
     4     1    27    1
     5     2     3    2
     6     2     4    2
     7     2     5   am
     8     5     6    1
     9     5    28    1
    10     6     7    1
    11     6    29    1
    12     6    30    1
    13     7     8    1
    14     7    12    1
    15     7     9    1
    16     9    10    1
    17     9    31    1
    18     9    32    1
    19    10    11    1
    20    10    33    1
    21    10    34    1
    22    11    12    1
    23    11    35    1
    24    11    36    1
    25    12    13    1
    26    12    14    1
    27    14    15   am
    28    14    37    1
    29    15    16    2
    30    15    17    1
    31    17    24    1
    32    17    18    1
    33    17    20    1
    34    18    19    3
    35    20    21    1
    36    20    38    1
    37    20    39    1
    38    21    22    1
    39    21    40    1
    40    21    41    1
    41    22    23    1
    42    23    24    1
    43    23    42    1
    44    23    43    1
    45    24    44    1
    46    24    45    1
@<TRIPOS>SUBSTRUCTURE
     1 ZINC000337709254        1 TEMP              0 ****  ****    0 ROOT


##########                                Name:    ZINC001272744746
##########                DOCK_Rotatable_Bonds:                   6
##########                         Heavy_Atoms:                  25
##########                    Molecular_Weight:             348.417
##########                DOCK_Rotatable_Bonds:                   6
##########                       Formal_Charge:           0.0299999
##########                     HBond_Acceptors:                   6
##########                        HBond_Donors:                   1
##########                         Heavy_Atoms:                  25
##########                          Grid_Score:          -24.091223
##########                     Grid_vdw_energy:          -23.323101
##########                      Grid_es_energy:           -0.768122
##########           Internal_energy_repulsive:           30.651491

@<TRIPOS>MOLECULE
ZINC001272744746
 50 52 1 0 0
SMALL
USER_CHARGES


@<TRIPOS>ATOM
      1 C1         -1.4996    4.5335   51.8088 C.2     1  ZINC001272744746   -0.1700
      2 C2         -2.5509    4.5791   52.5891 C.2     1  ZINC001272744746   -0.1700
      3 C3         -3.0845    3.3135   53.2092 C.3     1  ZINC001272744746    0.1500
      4 N4         -4.2590    2.8602   52.4600 N.am    1  ZINC001272744746   -0.6100
      5 C5         -5.6441    3.2198   52.7926 C.3     1  ZINC001272744746    0.0700
      6 C6         -6.4647    2.8854   51.5351 C.3     1  ZINC001272744746    0.1100
      7 C7         -5.6052    1.8038   50.8555 C.3     1  ZINC001272744746   -0.1500
      8 C8         -4.2075    2.0658   51.3759 C.2     1  ZINC001272744746    0.5200
      9 O9         -3.1902    1.6181   50.8905 O.2     1  ZINC001272744746   -0.5200
     10 C10        -6.5921    4.1087   50.6380 C.3     1  ZINC001272744746   -0.1000
     11 C11        -7.4335    5.1744   51.3487 C.3     1  ZINC001272744746   -0.1200
     12 C12        -8.7916    4.5729   51.7211 C.3     1  ZINC001272744746   -0.1200
     13 C13        -8.5780    3.3507   52.6168 C.3     1  ZINC001272744746    0.0500
     14 N14        -7.7738    2.3516   51.8988 N.3     1  ZINC001272744746   -0.5100
     15 C15        -7.6394    1.1191   52.6867 C.3     1  ZINC001272744746    0.0800
     16 C16        -8.6470    1.1268   53.8073 C.ar    1  ZINC001272744746   -0.0200
     17 C17        -8.3014    1.6440   55.0416 C.ar    1  ZINC001272744746   -0.1700
     18 C18        -9.2239    1.6531   56.0740 C.ar    1  ZINC001272744746    0.1200
     19 F19        -8.8839    2.1591   57.2797 F       1  ZINC001272744746   -0.1200
     20 C20       -10.4975    1.1430   55.8697 C.ar    1  ZINC001272744746    0.0400
     21 O21       -11.4059    1.1513   56.8823 O.3     1  ZINC001272744746   -0.4700
     22 C22       -10.8438    0.6234   54.6267 C.ar    1  ZINC001272744746    0.1300
     23 O23       -12.0912    0.1224   54.4213 O.3     1  ZINC001272744746   -0.3000
     24 C24       -12.3770   -0.3936   53.1197 C.3     1  ZINC001272744746    0.0200
     25 C25        -9.9168    0.6218   53.5965 C.ar    1  ZINC001272744746   -0.1800
     26 H26        -1.0152    3.5889   51.6100 H       1  ZINC001272744746    0.1000
     27 H27        -1.1199    5.4399   51.3609 H       1  ZINC001272744746    0.1000
     28 H28        -3.0353    5.5237   52.7880 H       1  ZINC001272744746    0.1100
     29 H29        -2.3150    2.5421   53.1802 H       1  ZINC001272744746    0.0900
     30 H30        -3.3663    3.5068   54.2444 H       1  ZINC001272744746    0.0800
     31 H31        -5.9942    2.6303   53.6399 H       1  ZINC001272744746    0.0700
     32 H32        -5.7143    4.2841   53.0173 H       1  ZINC001272744746    0.0900
     33 H33        -5.9443    0.8090   51.1444 H       1  ZINC001272744746    0.1100
     34 H34        -5.6339    1.9183   49.7718 H       1  ZINC001272744746    0.1100
     35 H35        -5.6008    4.5094   50.4265 H       1  ZINC001272744746    0.0700
     36 H36        -7.0772    3.8257   49.7039 H       1  ZINC001272744746    0.0800
     37 H37        -6.9195    5.5017   52.2526 H       1  ZINC001272744746    0.0600
     38 H38        -7.5816    6.0252   50.6837 H       1  ZINC001272744746    0.0700
     39 H39        -9.3841    5.3158   52.2551 H       1  ZINC001272744746    0.0700
     40 H40        -9.3167    4.2719   50.8146 H       1  ZINC001272744746    0.0700
     41 H41        -8.0563    3.6525   53.5250 H       1  ZINC001272744746    0.0400
     42 H42        -9.5439    2.9192   52.8792 H       1  ZINC001272744746    0.0900
     43 H43        -7.8168    0.2563   52.0445 H       1  ZINC001272744746    0.1000
     44 H44        -6.6336    1.0616   53.1028 H       1  ZINC001272744746    0.0600
     45 H45        -7.3099    2.0413   55.2011 H       1  ZINC001272744746    0.1400
     46 H46       -11.0937    1.5868   57.6873 H       1  ZINC001272744746    0.3900
     47 H47       -11.6923   -1.2114   52.8947 H       1  ZINC001272744746    0.0600
     48 H48       -13.4030   -0.7605   53.0915 H       1  ZINC001272744746    0.1100
     49 H49       -12.2536    0.3974   52.3801 H       1  ZINC001272744746    0.0600
     50 H50       -10.1838    0.2188   52.6308 H       1  ZINC001272744746    0.1400
@<TRIPOS>BOND
     1     1     2    2
     2     1    26    1
     3     1    27    1
     4     2     3    1
     5     2    28    1
     6     3     4    1
     7     3    29    1
     8     3    30    1
     9     4     8   am
    10     4     5    1
    11     5     6    1
    12     5    31    1
    13     5    32    1
    14     6    14    1
    15     6     7    1
    16     6    10    1
    17     7     8    1
    18     7    33    1
    19     7    34    1
    20     8     9    2
    21    10    11    1
    22    10    35    1
    23    10    36    1
    24    11    12    1
    25    11    37    1
    26    11    38    1
    27    12    13    1
    28    12    39    1
    29    12    40    1
    30    13    14    1
    31    13    41    1
    32    13    42    1
    33    14    15    1
    34    15    16    1
    35    15    43    1
    36    15    44    1
    37    16    25   ar
    38    16    17   ar
    39    17    18   ar
    40    17    45    1
    41    18    19    1
    42    18    20   ar
    43    20    21    1
    44    20    22   ar
    45    21    46    1
    46    22    23    1
    47    22    25   ar
    48    23    24    1
    49    24    47    1
    50    24    48    1
    51    24    49    1
    52    25    50    1
@<TRIPOS>SUBSTRUCTURE
     1 ZINC001272744746        1 TEMP              0 ****  ****    0 ROOT


##########                                Name:    ZINC000826324849
##########                DOCK_Rotatable_Bonds:                   4
##########                         Heavy_Atoms:                  27
##########                    Molecular_Weight:             395.374
##########                DOCK_Rotatable_Bonds:                   4
##########                       Formal_Charge:           0.0400001
##########                     HBond_Acceptors:                  13
##########                        HBond_Donors:                   1
##########                         Heavy_Atoms:                  27
##########                          Grid_Score:          -24.069723
##########                     Grid_vdw_energy:          -24.592636
##########                      Grid_es_energy:            0.522913
##########           Internal_energy_repulsive:          124.510216

@<TRIPOS>MOLECULE
ZINC000826324849
 41 44 1 0 0
SMALL
USER_CHARGES


@<TRIPOS>ATOM
      1 C1         -8.1591    6.8661   50.1815 C.3     1  ZINC000826324849   -0.0600
      2 C2         -7.2546    6.7543   51.3817 C.2     1  ZINC000826324849    0.2000
      3 N3         -7.5559    6.2173   52.5394 N.2     1  ZINC000826324849   -0.4600
      4 C4         -6.4505    6.3427   53.2953 C.2     1  ZINC000826324849    0.1600
      5 C5         -6.2862    5.8773   54.7192 C.3     1  ZINC000826324849    0.2200
      6 H6         -5.5704    6.5178   55.2345 H       1  ZINC000826324849    0.1300
      7 C7         -7.6385    5.9307   55.4392 C.3     1  ZINC000826324849    0.0600
      8 O8         -7.5125    5.3160   56.7237 O.3     1  ZINC000826324849   -0.3600
      9 C9         -7.1674    3.9295   56.6777 C.3     1  ZINC000826324849    0.0400
     10 C10        -5.7909    3.7736   56.0212 C.3     1  ZINC000826324849    0.0800
     11 N11        -5.8065    4.4863   54.7337 N.am    1  ZINC000826324849   -1.0100
     12 S12        -5.3007    3.7441   53.3423 S.o2    1  ZINC000826324849    2.7100
     13 O13        -5.5863    4.6445   52.2808 O.2     1  ZINC000826324849   -0.9300
     14 O14        -3.9980    3.2418   53.6063 O.2     1  ZINC000826324849   -0.9300
     15 C15        -6.3351    2.3392   53.0950 C.ar    1  ZINC000826324849   -0.5800
     16 C16        -7.4887    2.1911   53.8378 C.ar    1  ZINC000826324849   -0.0400
     17 C17        -8.3026    1.0889   53.6457 C.ar    1  ZINC000826324849   -0.0800
     18 C18        -7.9661    0.1290   52.7095 C.ar    1  ZINC000826324849   -0.1100
     19 C19        -6.8126    0.2666   51.9592 C.ar    1  ZINC000826324849    0.1300
     20 F20        -6.4841   -0.6714   51.0441 F       1  ZINC000826324849   -0.1100
     21 C21        -5.9924    1.3794   52.1455 C.ar    1  ZINC000826324849    0.0500
     22 C22        -4.7529    1.5340   51.3434 C.2     1  ZINC000826324849    0.1800
     23 N23        -3.5710    1.0164   51.6129 N.2     1  ZINC000826324849   -0.2600
     24 N24        -2.7595    1.3791   50.6797 N.pl3   1  ZINC000826324849   -0.2200
     25 N25        -3.3898    2.1098   49.8277 N.2     1  ZINC000826324849   -0.0200
     26 N26        -4.6193    2.2224   50.2009 N.2     1  ZINC000826324849   -0.2600
     27 N27        -5.5501    6.9385   52.5722 N.2     1  ZINC000826324849   -0.3800
     28 O28        -5.9900    7.1784   51.4675 O.3     1  ZINC000826324849    0.0900
     29 H29        -7.6243    7.3559   49.3678 H       1  ZINC000826324849    0.1000
     30 H30        -8.4681    5.8698   49.8654 H       1  ZINC000826324849    0.1100
     31 H31        -9.0391    7.4535   50.4433 H       1  ZINC000826324849    0.1100
     32 H32        -7.9452    6.9696   55.5611 H       1  ZINC000826324849    0.1200
     33 H33        -8.3852    5.3966   54.8516 H       1  ZINC000826324849    0.0600
     34 H34        -7.1350    3.5285   57.6908 H       1  ZINC000826324849    0.1200
     35 H35        -7.9123    3.3880   56.0946 H       1  ZINC000826324849    0.0600
     36 H36        -5.0251    4.2017   56.6679 H       1  ZINC000826324849    0.0900
     37 H37        -5.5818    2.7171   55.8534 H       1  ZINC000826324849    0.1100
     38 H38        -7.7566    2.9373   54.5712 H       1  ZINC000826324849    0.1400
     39 H39        -9.2043    0.9779   54.2296 H       1  ZINC000826324849    0.1500
     40 H40        -8.6048   -0.7298   52.5642 H       1  ZINC000826324849    0.1500
     41 H41        -1.8211    1.1395   50.6277 H       1  ZINC000826324849    0.4800
@<TRIPOS>BOND
     1     1     2    1
     2     1    29    1
     3     1    30    1
     4     1    31    1
     5     2    28    1
     6     2     3    2
     7     3     4    1
     8     4     5    1
     9     4    27    2
    10     5     6    1
    11     5    11    1
    12     5     7    1
    13     7     8    1
    14     7    32    1
    15     7    33    1
    16     8     9    1
    17     9    10    1
    18     9    34    1
    19     9    35    1
    20    10    11    1
    21    10    36    1
    22    10    37    1
    23    11    12   am
    24    12    13    2
    25    12    14    2
    26    12    15    1
    27    15    21   ar
    28    15    16   ar
    29    16    17   ar
    30    16    38    1
    31    17    18   ar
    32    17    39    1
    33    18    19   ar
    34    18    40    1
    35    19    20    1
    36    19    21   ar
    37    21    22    1
    38    22    26    1
    39    22    23    2
    40    23    24    1
    41    24    25    1
    42    24    41    1
    43    25    26    2
    44    27    28    1
@<TRIPOS>SUBSTRUCTURE
     1 ZINC000826324849        1 TEMP              0 ****  ****    0 ROOT


##########                                Name:    ZINC000176150038
##########                DOCK_Rotatable_Bonds:                   4
##########                         Heavy_Atoms:                  23
##########                    Molecular_Weight:             333.712
##########                DOCK_Rotatable_Bonds:                   4
##########                       Formal_Charge:        -2.23517e-07
##########                     HBond_Acceptors:                  10
##########                        HBond_Donors:                   1
##########                         Heavy_Atoms:                  23
##########                          Grid_Score:          -24.056746
##########                     Grid_vdw_energy:          -23.871469
##########                      Grid_es_energy:           -0.185276
##########           Internal_energy_repulsive:            9.664819

@<TRIPOS>MOLECULE
ZINC000176150038
 32 34 1 0 0
SMALL
USER_CHARGES


@<TRIPOS>ATOM
      1 C1         -6.9965    2.8707   51.1378 C.3     1  ZINC000176150038   -0.0900
      2 C2         -6.7690    1.4012   51.3827 C.2     1  ZINC000176150038    0.2600
      3 N3         -6.1172    0.5775   50.6042 N.2     1  ZINC000176150038   -0.3300
      4 N4         -6.1067   -0.6054   51.1042 N.2     1  ZINC000176150038   -0.0300
      5 N5         -6.7441   -0.6207   52.2251 N.2     1  ZINC000176150038   -0.0700
      6 N6         -7.1956    0.6917   52.4497 N.pl3   1  ZINC000176150038   -0.3300
      7 C7         -7.9374    1.1620   53.5441 C.ar    1  ZINC000176150038    0.1400
      8 C8         -7.4038    2.1354   54.3776 C.ar    1  ZINC000176150038   -0.1000
      9 C9         -8.1330    2.6001   55.4558 C.ar    1  ZINC000176150038   -0.1100
     10 C10        -9.3963    2.0972   55.7076 C.ar    1  ZINC000176150038    0.1000
     11 F11       -10.1072    2.5536   56.7620 F       1  ZINC000176150038   -0.1200
     12 C12        -9.9357    1.1214   54.8751 C.ar    1  ZINC000176150038    0.1300
     13 N13       -11.2140    0.6119   55.1293 N.am    1  ZINC000176150038   -0.6500
     14 C14       -11.3925   -0.7153   55.2807 C.2     1  ZINC000176150038    0.5700
     15 O15       -10.4435   -1.4695   55.1966 O.2     1  ZINC000176150038   -0.4800
     16 C16       -12.7474   -1.2554   55.5501 C.ar    1  ZINC000176150038    0.1400
     17 N17       -12.9357   -2.1674   56.5015 N.ar    1  ZINC000176150038   -0.4800
     18 C18       -14.1358   -2.6485   56.7438 C.ar    1  ZINC000176150038    0.3000
     19 N19       -15.1959   -2.2554   56.0647 N.ar    1  ZINC000176150038   -0.4800
     20 C20       -15.0944   -1.3534   55.1039 C.ar    1  ZINC000176150038    0.1700
     21 C21       -13.8485   -0.8115   54.8139 C.ar    1  ZINC000176150038   -0.1000
     22 Cl22      -13.6629    0.3765   53.5618 Cl      1  ZINC000176150038    0.0100
     23 C23        -9.2066    0.6582   53.7899 C.ar    1  ZINC000176150038   -0.0800
     24 H24        -6.1769    3.4426   51.5730 H       1  ZINC000176150038    0.1100
     25 H25        -7.0405    3.0576   50.0649 H       1  ZINC000176150038    0.1100
     26 H26        -7.9365    3.1745   51.5984 H       1  ZINC000176150038    0.0900
     27 H27        -6.4172    2.5297   54.1836 H       1  ZINC000176150038    0.1500
     28 H28        -7.7154    3.3573   56.1030 H       1  ZINC000176150038    0.1600
     29 H29       -11.9715    1.2140   55.1965 H       1  ZINC000176150038    0.4300
     30 H30       -14.2566   -3.3878   57.5219 H       1  ZINC000176150038    0.2200
     31 H31       -15.9692   -1.0389   54.5541 H       1  ZINC000176150038    0.1900
     32 H32        -9.6228   -0.0990   53.1420 H       1  ZINC000176150038    0.1700
@<TRIPOS>BOND
     1     1     2    1
     2     1    24    1
     3     1    25    1
     4     1    26    1
     5     2     6    1
     6     2     3    2
     7     3     4    1
     8     4     5    2
     9     5     6    1
    10     6     7    1
    11     7    23   ar
    12     7     8   ar
    13     8     9   ar
    14     8    27    1
    15     9    10   ar
    16     9    28    1
    17    10    11    1
    18    10    12   ar
    19    12    13    1
    20    12    23   ar
    21    13    14   am
    22    13    29    1
    23    14    15    2
    24    14    16    1
    25    16    21   ar
    26    16    17   ar
    27    17    18   ar
    28    18    19   ar
    29    18    30    1
    30    19    20   ar
    31    20    21   ar
    32    20    31    1
    33    21    22    1
    34    23    32    1
@<TRIPOS>SUBSTRUCTURE
     1 ZINC000176150038        1 TEMP              0 ****  ****    0 ROOT


##########                                Name:    ZINC000455156110
##########                DOCK_Rotatable_Bonds:                   4
##########                         Heavy_Atoms:                  27
##########                    Molecular_Weight:             370.424
##########                DOCK_Rotatable_Bonds:                   4
##########                       Formal_Charge:           0.0100002
##########                     HBond_Acceptors:                   6
##########                        HBond_Donors:                   1
##########                         Heavy_Atoms:                  27
##########                          Grid_Score:          -23.951777
##########                     Grid_vdw_energy:          -24.091249
##########                      Grid_es_energy:            0.139473
##########           Internal_energy_repulsive:          198.193146

@<TRIPOS>MOLECULE
ZINC000455156110
 50 53 1 0 0
SMALL
USER_CHARGES


@<TRIPOS>ATOM
      1 C1          2.4053    3.4446   48.7926 C.3     1  ZINC000455156110    0.0300
      2 O2          2.0085    4.4888   49.6839 O.3     1  ZINC000455156110   -0.3100
      3 C3          0.8060    4.3478   50.3040 C.ar    1  ZINC000455156110    0.0900
      4 C4          0.3574    5.3268   51.1765 C.ar    1  ZINC000455156110   -0.1600
      5 C5         -0.8640    5.1846   51.8068 C.ar    1  ZINC000455156110   -0.0800
      6 C6         -1.3504    6.2496   52.7556 C.3     1  ZINC000455156110   -0.1100
      7 C7         -1.6432    4.0615   51.5661 C.ar    1  ZINC000455156110    0.1500
      8 N8         -2.8822    3.9182   52.2048 N.am    1  ZINC000455156110   -0.6700
      9 C9         -3.6392    2.8280   51.9701 C.2     1  ZINC000455156110    0.7200
     10 O10        -3.2470    1.9689   51.2042 O.2     1  ZINC000455156110   -0.5500
     11 N11        -4.8309    2.6902   52.5845 N.am    1  ZINC000455156110   -0.5600
     12 C12        -5.4115    3.6582   53.5206 C.3     1  ZINC000455156110    0.1000
     13 C13        -6.7573    3.0515   53.9358 C.3     1  ZINC000455156110   -0.0200
     14 C14        -6.7849    2.8054   55.4425 C.3     1  ZINC000455156110   -0.1400
     15 C15        -6.7379    4.1511   56.1729 C.3     1  ZINC000455156110    0.0600
     16 O16        -7.8290    4.9650   55.7377 O.3     1  ZINC000455156110   -0.3800
     17 C17        -7.8086    5.2749   54.3427 C.3     1  ZINC000455156110    0.0600
     18 C18        -7.9023    3.9780   53.5329 C.3     1  ZINC000455156110   -0.1400
     19 C19        -6.8457    1.7464   53.1855 C.ar    1  ZINC000455156110   -0.1300
     20 C20        -7.8258    0.7729   53.1624 C.ar    1  ZINC000455156110   -0.0700
     21 C21        -7.6685   -0.3538   52.3767 C.ar    1  ZINC000455156110   -0.1400
     22 C22        -6.5265   -0.5056   51.6123 C.ar    1  ZINC000455156110   -0.0900
     23 C23        -5.5450    0.4625   51.6323 C.ar    1  ZINC000455156110   -0.1300
     24 C24        -5.6985    1.6055   52.4182 C.ar    1  ZINC000455156110    0.1600
     25 C25        -1.1949    3.0802   50.6917 C.ar    1  ZINC000455156110   -0.1200
     26 C26         0.0251    3.2252   50.0581 C.ar    1  ZINC000455156110    0.0900
     27 F27         0.4620    2.2713   49.2069 F       1  ZINC000455156110   -0.1300
     28 H28         3.3803    3.6813   48.3667 H       1  ZINC000455156110    0.1000
     29 H29         2.4663    2.5038   49.3396 H       1  ZINC000455156110    0.0600
     30 H30         1.6717    3.3523   47.9917 H       1  ZINC000455156110    0.0600
     31 H31         0.9630    6.2012   51.3640 H       1  ZINC000455156110    0.1400
     32 H32        -1.9271    6.9920   52.2039 H       1  ZINC000455156110    0.0800
     33 H33        -1.9805    5.7949   53.5201 H       1  ZINC000455156110    0.0600
     34 H34        -0.4956    6.7322   53.2293 H       1  ZINC000455156110    0.0800
     35 H35        -3.1950    4.6034   52.8158 H       1  ZINC000455156110    0.4100
     36 H36        -4.7657    3.7781   54.3905 H       1  ZINC000455156110    0.0800
     37 H37        -5.5649    4.6176   53.0267 H       1  ZINC000455156110    0.0900
     38 H38        -7.7010    2.2782   55.7087 H       1  ZINC000455156110    0.0800
     39 H39        -5.9217    2.2049   55.7293 H       1  ZINC000455156110    0.0800
     40 H40        -6.8145    3.9845   57.2474 H       1  ZINC000455156110    0.1000
     41 H41        -5.7971    4.6538   55.9487 H       1  ZINC000455156110    0.0500
     42 H42        -8.6554    5.9170   54.1004 H       1  ZINC000455156110    0.1000
     43 H43        -6.8795    5.7900   54.0981 H       1  ZINC000455156110    0.0500
     44 H44        -7.8291    4.2064   52.4696 H       1  ZINC000455156110    0.0800
     45 H45        -8.8551    3.4894   53.7367 H       1  ZINC000455156110    0.0800
     46 H46        -8.7172    0.8922   53.7603 H       1  ZINC000455156110    0.1300
     47 H47        -8.4357   -1.1136   52.3604 H       1  ZINC000455156110    0.1300
     48 H48        -6.4028   -1.3852   50.9979 H       1  ZINC000455156110    0.1300
     49 H49        -4.6549    0.3378   51.0334 H       1  ZINC000455156110    0.1400
     50 H50        -1.8007    2.2061   50.5040 H       1  ZINC000455156110    0.1700
@<TRIPOS>BOND
     1     1     2    1
     2     1    28    1
     3     1    29    1
     4     1    30    1
     5     2     3    1
     6     3    26   ar
     7     3     4   ar
     8     4     5   ar
     9     4    31    1
    10     5     6    1
    11     5     7   ar
    12     6    32    1
    13     6    33    1
    14     6    34    1
    15     7     8    1
    16     7    25   ar
    17     8     9   am
    18     8    35    1
    19     9    10    2
    20     9    11   am
    21    11    24    1
    22    11    12    1
    23    12    13    1
    24    12    36    1
    25    12    37    1
    26    13    18    1
    27    13    14    1
    28    13    19    1
    29    14    15    1
    30    14    38    1
    31    14    39    1
    32    15    16    1
    33    15    40    1
    34    15    41    1
    35    16    17    1
    36    17    18    1
    37    17    42    1
    38    17    43    1
    39    18    44    1
    40    18    45    1
    41    19    24   ar
    42    19    20   ar
    43    20    21   ar
    44    20    46    1
    45    21    22   ar
    46    21    47    1
    47    22    23   ar
    48    22    48    1
    49    23    24   ar
    50    23    49    1
    51    25    26   ar
    52    25    50    1
    53    26    27    1
@<TRIPOS>SUBSTRUCTURE
     1 ZINC000455156110        1 TEMP              0 ****  ****    0 ROOT


##########                                Name:    ZINC000422507946
##########                DOCK_Rotatable_Bonds:                   7
##########                         Heavy_Atoms:                  25
##########                    Molecular_Weight:             364.484
##########                DOCK_Rotatable_Bonds:                   7
##########                       Formal_Charge:          0.00999952
##########                     HBond_Acceptors:                   6
##########                        HBond_Donors:                   1
##########                         Heavy_Atoms:                  25
##########                          Grid_Score:          -23.882580
##########                     Grid_vdw_energy:          -23.686104
##########                      Grid_es_energy:           -0.196477
##########           Internal_energy_repulsive:           34.829906

@<TRIPOS>MOLECULE
ZINC000422507946
 50 52 1 0 0
SMALL
USER_CHARGES


@<TRIPOS>ATOM
      1 C1         -8.2976    1.7703   65.2947 C.3     1  ZINC000422507946   -0.1400
      2 C2         -7.5565    1.7956   63.9565 C.3     1  ZINC000422507946   -0.0400
      3 H3         -6.6489    2.3938   64.0369 H       1  ZINC000422507946    0.1100
      4 C4         -8.4710    2.3526   62.8458 C.3     1  ZINC000422507946   -0.1400
      5 C5         -8.1282    1.6525   61.5194 C.3     1  ZINC000422507946    0.1400
      6 H6         -7.1657    2.0057   61.1497 H       1  ZINC000422507946    0.1100
      7 N7         -9.1733    1.9194   60.5279 N.am    1  ZINC000422507946   -0.6900
      8 C8         -9.0862    1.3811   59.2954 C.2     1  ZINC000422507946    0.5100
      9 O9         -8.1430    0.6741   59.0074 O.2     1  ZINC000422507946   -0.5000
     10 C10       -10.1513    1.6549   58.2835 C.2     1  ZINC000422507946    0.5100
     11 O11       -10.1750    2.7188   57.7002 O.2     1  ZINC000422507946   -0.5200
     12 N12       -11.0856    0.7202   58.0188 N.am    1  ZINC000422507946   -0.5700
     13 C13       -12.1297    0.9887   57.0268 C.3     1  ZINC000422507946    0.1400
     14 C14       -11.6518    0.5559   55.6647 C.ar    1  ZINC000422507946   -0.0800
     15 C15       -10.3015    0.5705   55.3694 C.ar    1  ZINC000422507946   -0.1100
     16 C16        -9.8615    0.1737   54.1202 C.ar    1  ZINC000422507946   -0.0900
     17 C17       -10.7714   -0.2381   53.1653 C.ar    1  ZINC000422507946   -0.1500
     18 C18       -12.1244   -0.2536   53.4601 C.ar    1  ZINC000422507946    0.1000
     19 F19       -13.0149   -0.6560   52.5273 F       1  ZINC000422507946   -0.1400
     20 C20       -12.5633    0.1389   54.7130 C.ar    1  ZINC000422507946   -0.1500
     21 C21       -11.0569   -0.5641   58.7229 C.3     1  ZINC000422507946    0.1400
     22 C22       -12.4949   -1.0298   59.0313 C.3     1  ZINC000422507946   -0.1200
     23 C23       -12.8435   -1.9855   57.8632 C.3     1  ZINC000422507946   -0.1300
     24 C24       -11.5063   -2.7280   57.6186 C.3     1  ZINC000422507946   -0.1200
     25 C25       -10.4284   -1.6439   57.8246 C.3     1  ZINC000422507946   -0.1600
     26 C26        -8.0557    0.1318   61.8177 C.3     1  ZINC000422507946   -0.0900
     27 S27        -7.1530    0.0928   63.4179 S.3     1  ZINC000422507946   -0.2700
     28 H28        -7.6482    1.3480   66.0617 H       1  ZINC000422507946    0.0700
     29 H29        -8.5774    2.7859   65.5745 H       1  ZINC000422507946    0.0700
     30 H30        -9.1951    1.1588   65.2016 H       1  ZINC000422507946    0.0700
     31 H31        -9.5136    2.1627   63.1009 H       1  ZINC000422507946    0.0900
     32 H32        -8.3116    3.4261   62.7446 H       1  ZINC000422507946    0.0900
     33 H33        -9.9279    2.4837   60.7586 H       1  ZINC000422507946    0.4100
     34 H34       -13.0309    0.4342   57.2887 H       1  ZINC000422507946    0.1100
     35 H35       -12.3511    2.0559   57.0120 H       1  ZINC000422507946    0.1000
     36 H36        -9.5897    0.8926   56.1151 H       1  ZINC000422507946    0.1400
     37 H37        -8.8064    0.1859   53.8906 H       1  ZINC000422507946    0.1300
     38 H38       -10.4276   -0.5473   52.1894 H       1  ZINC000422507946    0.1400
     39 H39       -13.6183    0.1269   54.9442 H       1  ZINC000422507946    0.1400
     40 H40       -10.4877   -0.4700   59.6477 H       1  ZINC000422507946    0.1100
     41 H41       -12.5280   -1.5616   59.9822 H       1  ZINC000422507946    0.0800
     42 H42       -13.1767   -0.1795   59.0448 H       1  ZINC000422507946    0.0600
     43 H43       -13.6258   -2.6853   58.1571 H       1  ZINC000422507946    0.0700
     44 H44       -13.1400   -1.4220   56.9786 H       1  ZINC000422507946    0.0600
     45 H45       -11.3797   -3.5340   58.3412 H       1  ZINC000422507946    0.0700
     46 H46       -11.4667   -3.1169   56.6010 H       1  ZINC000422507946    0.0700
     47 H47       -10.1446   -1.2122   56.8648 H       1  ZINC000422507946    0.0900
     48 H48        -9.5547   -2.0742   58.3138 H       1  ZINC000422507946    0.0800
     49 H49        -9.0547   -0.2910   61.9241 H       1  ZINC000422507946    0.1000
     50 H50        -7.4931   -0.3893   61.0430 H       1  ZINC000422507946    0.1100
@<TRIPOS>BOND
     1     1     2    1
     2     1    28    1
     3     1    29    1
     4     1    30    1
     5     2     3    1
     6     2    27    1
     7     2     4    1
     8     4     5    1
     9     4    31    1
    10     4    32    1
    11     5     6    1
    12     5     7    1
    13     5    26    1
    14     7     8   am
    15     7    33    1
    16     8     9    2
    17     8    10    1
    18    10    11    2
    19    10    12   am
    20    12    13    1
    21    12    21    1
    22    13    14    1
    23    13    34    1
    24    13    35    1
    25    14    20   ar
    26    14    15   ar
    27    15    16   ar
    28    15    36    1
    29    16    17   ar
    30    16    37    1
    31    17    18   ar
    32    17    38    1
    33    18    19    1
    34    18    20   ar
    35    20    39    1
    36    21    25    1
    37    21    22    1
    38    21    40    1
    39    22    23    1
    40    22    41    1
    41    22    42    1
    42    23    24    1
    43    23    43    1
    44    23    44    1
    45    24    25    1
    46    24    45    1
    47    24    46    1
    48    25    47    1
    49    25    48    1
    50    26    27    1
    51    26    49    1
    52    26    50    1
@<TRIPOS>SUBSTRUCTURE
     1 ZINC000422507946        1 TEMP              0 ****  ****    0 ROOT


##########                                Name:    ZINC000506388363
##########                DOCK_Rotatable_Bonds:                   5
##########                         Heavy_Atoms:                  29
##########                    Molecular_Weight:             416.858
##########                DOCK_Rotatable_Bonds:                   5
##########                       Formal_Charge:         7.07805e-07
##########                     HBond_Acceptors:                   8
##########                        HBond_Donors:                   1
##########                         Heavy_Atoms:                  29
##########                          Grid_Score:          -23.447657
##########                     Grid_vdw_energy:          -22.705267
##########                      Grid_es_energy:           -0.742389
##########           Internal_energy_repulsive:            9.675766

@<TRIPOS>MOLECULE
ZINC000506388363
 48 51 1 0 0
SMALL
USER_CHARGES


@<TRIPOS>ATOM
      1 O1        -11.2818   -1.4622   54.7732 O.2     1  ZINC000506388363   -0.5300
      2 C2        -11.0211   -0.3329   55.1400 C.2     1  ZINC000506388363    0.5600
      3 C3        -11.4699    0.1347   56.4688 C.ar    1  ZINC000506388363   -0.1200
      4 C4        -10.8886   -0.3833   57.6271 C.ar    1  ZINC000506388363   -0.0900
      5 C5        -11.3111    0.0574   58.8645 C.ar    1  ZINC000506388363   -0.1100
      6 C6        -12.3092    1.0102   58.9592 C.ar    1  ZINC000506388363   -0.0900
      7 C7        -12.8906    1.5287   57.8143 C.ar    1  ZINC000506388363   -0.0400
      8 Cl8       -14.1423    2.7247   57.9434 Cl      1  ZINC000506388363   -0.0600
      9 C9        -12.4727    1.1003   56.5701 C.ar    1  ZINC000506388363   -0.0600
     10 N10       -10.3183    0.4909   54.3375 N.am    1  ZINC000506388363   -0.6100
     11 C11        -9.9818    1.8568   54.7668 C.3     1  ZINC000506388363    0.1000
     12 C12        -8.4770    2.0713   54.5724 C.3     1  ZINC000506388363    0.0400
     13 N13        -8.1148    1.7489   53.1856 N.3     1  ZINC000506388363   -0.5300
     14 C14        -6.7163    2.1044   52.9106 C.3     1  ZINC000506388363    0.1200
     15 C15        -6.6694    3.3961   52.1358 C.2     1  ZINC000506388363   -0.2100
     16 C16        -7.7359    4.1110   51.7157 C.2     1  ZINC000506388363    0.0600
     17 N17        -7.2767    5.1984   51.0600 N.pl3   1  ZINC000506388363   -0.4700
     18 N18        -5.8767    5.1570   51.0736 N.2     1  ZINC000506388363   -0.2700
     19 C19        -5.5057    4.0758   51.7261 C.2     1  ZINC000506388363    0.1300
     20 C20        -4.1083    3.6437   51.9766 C.ar    1  ZINC000506388363   -0.0700
     21 C21        -3.4860    3.9518   53.1865 C.ar    1  ZINC000506388363    0.1500
     22 F22        -4.1543    4.6444   54.1345 F       1  ZINC000506388363   -0.1200
     23 C23        -2.1838    3.5461   53.4135 C.ar    1  ZINC000506388363   -0.1600
     24 C24        -1.4984    2.8366   52.4444 C.ar    1  ZINC000506388363   -0.0500
     25 C25        -2.1096    2.5280   51.2428 C.ar    1  ZINC000506388363   -0.1600
     26 C26        -3.4133    2.9227   51.0054 C.ar    1  ZINC000506388363    0.1600
     27 F27        -4.0090    2.6205   49.8311 F       1  ZINC000506388363   -0.1200
     28 C28        -8.3674    0.3335   52.8842 C.3     1  ZINC000506388363    0.0400
     29 C29        -9.8624    0.0457   53.0120 C.3     1  ZINC000506388363    0.1200
     30 H30       -10.1096   -1.1279   57.5549 H       1  ZINC000506388363    0.1400
     31 H31       -10.8617   -0.3431   59.7612 H       1  ZINC000506388363    0.1400
     32 H32       -12.6367    1.3510   59.9303 H       1  ZINC000506388363    0.1400
     33 H33       -12.9263    1.5053   55.6776 H       1  ZINC000506388363    0.1400
     34 H34       -10.5351    2.5768   54.1639 H       1  ZINC000506388363    0.0800
     35 H35       -10.2367    1.9832   55.8189 H       1  ZINC000506388363    0.1000
     36 H36        -8.2280    3.1118   54.7808 H       1  ZINC000506388363    0.0900
     37 H37        -7.9261    1.4217   55.2524 H       1  ZINC000506388363    0.0400
     38 H38        -6.1804    2.2257   53.8519 H       1  ZINC000506388363    0.1000
     39 H39        -6.2485    1.3126   52.3256 H       1  ZINC000506388363    0.0400
     40 H40        -8.7734    3.8572   51.8759 H       1  ZINC000506388363    0.1800
     41 H41        -7.8218    5.8883   50.6502 H       1  ZINC000506388363    0.4400
     42 H42        -1.7007    3.7843   54.3497 H       1  ZINC000506388363    0.1500
     43 H43        -0.4814    2.5224   52.6264 H       1  ZINC000506388363    0.1500
     44 H44        -1.5688    1.9740   50.4899 H       1  ZINC000506388363    0.1500
     45 H45        -8.0388    0.1138   51.8684 H       1  ZINC000506388363    0.0900
     46 H46        -7.8180   -0.2918   53.5879 H       1  ZINC000506388363    0.0400
     47 H47       -10.0401   -1.0240   52.9021 H       1  ZINC000506388363    0.1000
     48 H48       -10.4075    0.5914   52.2416 H       1  ZINC000506388363    0.0800
@<TRIPOS>BOND
     1     1     2    2
     2     2     3    1
     3     2    10   am
     4     3     9   ar
     5     3     4   ar
     6     4     5   ar
     7     4    30    1
     8     5     6   ar
     9     5    31    1
    10     6     7   ar
    11     6    32    1
    12     7     8    1
    13     7     9   ar
    14     9    33    1
    15    10    29    1
    16    10    11    1
    17    11    12    1
    18    11    34    1
    19    11    35    1
    20    12    13    1
    21    12    36    1
    22    12    37    1
    23    13    14    1
    24    13    28    1
    25    14    15    1
    26    14    38    1
    27    14    39    1
    28    15    19    1
    29    15    16    2
    30    16    17    1
    31    16    40    1
    32    17    18    1
    33    17    41    1
    34    18    19    2
    35    19    20    1
    36    20    26   ar
    37    20    21   ar
    38    21    22    1
    39    21    23   ar
    40    23    24   ar
    41    23    42    1
    42    24    25   ar
    43    24    43    1
    44    25    26   ar
    45    25    44    1
    46    26    27    1
    47    28    29    1
    48    28    45    1
    49    28    46    1
    50    29    47    1
    51    29    48    1
@<TRIPOS>SUBSTRUCTURE
     1 ZINC000506388363        1 TEMP              0 ****  ****    0 ROOT


##########                                Name:    ZINC000055987960
##########                DOCK_Rotatable_Bonds:                   6
##########                         Heavy_Atoms:                  28
##########                    Molecular_Weight:             404.868
##########                DOCK_Rotatable_Bonds:                   6
##########                       Formal_Charge:          0.00999941
##########                     HBond_Acceptors:                   7
##########                        HBond_Donors:                   1
##########                         Heavy_Atoms:                  28
##########                          Grid_Score:          -23.416245
##########                     Grid_vdw_energy:          -23.033072
##########                      Grid_es_energy:           -0.383174
##########           Internal_energy_repulsive:           13.408824

@<TRIPOS>MOLECULE
ZINC000055987960
 50 52 1 0 0
SMALL
USER_CHARGES


@<TRIPOS>ATOM
      1 C1        -13.0555    1.4942   58.0930 C.3     1  ZINC000055987960   -0.1800
      2 C2        -14.2356    0.9808   57.2655 C.3     1  ZINC000055987960    0.0700
      3 H3        -14.8960    1.8121   57.0185 H       1  ZINC000055987960    0.1200
      4 C4        -13.7149    0.3394   55.9743 C.3     1  ZINC000055987960    0.0800
      5 N5        -12.9811   -0.8861   56.3279 N.am    1  ZINC000055987960   -0.6100
      6 C6        -11.7399   -1.1127   55.8542 C.2     1  ZINC000055987960    0.5700
      7 O7        -11.1499   -2.1314   56.1581 O.2     1  ZINC000055987960   -0.5300
      8 C8        -11.0968   -0.1242   54.9667 C.ar    1  ZINC000055987960   -0.1500
      9 C9        -11.5558    0.0446   53.6576 C.ar    1  ZINC000055987960   -0.0700
     10 C10       -10.9540    0.9678   52.8324 C.ar    1  ZINC000055987960   -0.1500
     11 C11        -9.8899    1.7323   53.3006 C.ar    1  ZINC000055987960    0.1700
     12 N12        -9.2829    2.6667   52.4624 N.am    1  ZINC000055987960   -0.6700
     13 C13        -7.9940    2.5107   52.1007 C.2     1  ZINC000055987960    0.5200
     14 O14        -7.3620    1.5574   52.5043 O.2     1  ZINC000055987960   -0.5000
     15 C15        -7.3379    3.5206   51.1948 C.3     1  ZINC000055987960   -0.1100
     16 C16        -5.8530    3.5356   51.4512 C.ar    1  ZINC000055987960   -0.1000
     17 C17        -5.0150    2.7151   50.7162 C.ar    1  ZINC000055987960    0.1300
     18 F18        -5.5278    1.9002   49.7684 F       1  ZINC000055987960   -0.1300
     19 C19        -3.6504    2.7303   50.9526 C.ar    1  ZINC000055987960   -0.1500
     20 C20        -3.1263    3.5642   51.9217 C.ar    1  ZINC000055987960   -0.0700
     21 C21        -3.9633    4.3838   52.6559 C.ar    1  ZINC000055987960   -0.1200
     22 C22        -5.3260    4.3738   52.4175 C.ar    1  ZINC000055987960    0.0000
     23 Cl23       -6.3761    5.4037   53.3396 Cl      1  ZINC000055987960   -0.0500
     24 C24        -9.4304    1.5667   54.6034 C.ar    1  ZINC000055987960   -0.1200
     25 C25       -10.0311    0.6490   55.4354 C.ar    1  ZINC000055987960   -0.0500
     26 C26       -13.6424   -1.8567   57.2145 C.3     1  ZINC000055987960    0.0600
     27 C27       -14.1666   -1.1082   58.4454 C.3     1  ZINC000055987960    0.0700
     28 H28       -13.3257   -0.7500   59.0391 H       1  ZINC000055987960    0.0700
     29 C29       -15.0240   -2.0522   59.2908 C.3     1  ZINC000055987960   -0.1500
     30 O30       -14.9584    0.0045   58.0191 O.3     1  ZINC000055987960   -0.3700
     31 H31       -12.3956    0.6625   58.3397 H       1  ZINC000055987960    0.0600
     32 H32       -12.5039    2.2373   57.5172 H       1  ZINC000055987960    0.0700
     33 H33       -13.4263    1.9485   59.0118 H       1  ZINC000055987960    0.0700
     34 H34       -14.5536    0.0904   55.3240 H       1  ZINC000055987960    0.0800
     35 H35       -13.0469    1.0328   55.4634 H       1  ZINC000055987960    0.1000
     36 H36       -12.3815   -0.5486   53.2934 H       1  ZINC000055987960    0.1400
     37 H37       -11.3079    1.0986   51.8205 H       1  ZINC000055987960    0.1300
     38 H38        -9.7883    3.4291   52.1396 H       1  ZINC000055987960    0.4200
     39 H39        -7.5244    3.2512   50.1551 H       1  ZINC000055987960    0.1200
     40 H40        -7.7510    4.5095   51.3935 H       1  ZINC000055987960    0.1200
     41 H41        -2.9960    2.0901   50.3796 H       1  ZINC000055987960    0.1500
     42 H42        -2.0622    3.5755   52.1060 H       1  ZINC000055987960    0.1500
     43 H43        -3.5527    5.0349   53.4133 H       1  ZINC000055987960    0.1400
     44 H44        -8.6039    2.1614   54.9636 H       1  ZINC000055987960    0.1500
     45 H45        -9.6741    0.5209   56.4466 H       1  ZINC000055987960    0.1300
     46 H46       -14.4738   -2.3268   56.6891 H       1  ZINC000055987960    0.0800
     47 H47       -12.9264   -2.6175   57.5250 H       1  ZINC000055987960    0.1100
     48 H48       -14.4206   -2.9013   59.6120 H       1  ZINC000055987960    0.0700
     49 H49       -15.3963   -1.5193   60.1658 H       1  ZINC000055987960    0.0700
     50 H50       -15.8657   -2.4085   58.6970 H       1  ZINC000055987960    0.0700
@<TRIPOS>BOND
     1     1     2    1
     2     1    31    1
     3     1    32    1
     4     1    33    1
     5     2     3    1
     6     2    30    1
     7     2     4    1
     8     4     5    1
     9     4    34    1
    10     4    35    1
    11     5     6   am
    12     5    26    1
    13     6     7    2
    14     6     8    1
    15     8    25   ar
    16     8     9   ar
    17     9    10   ar
    18     9    36    1
    19    10    11   ar
    20    10    37    1
    21    11    12    1
    22    11    24   ar
    23    12    13   am
    24    12    38    1
    25    13    14    2
    26    13    15    1
    27    15    16    1
    28    15    39    1
    29    15    40    1
    30    16    22   ar
    31    16    17   ar
    32    17    18    1
    33    17    19   ar
    34    19    20   ar
    35    19    41    1
    36    20    21   ar
    37    20    42    1
    38    21    22   ar
    39    21    43    1
    40    22    23    1
    41    24    25   ar
    42    24    44    1
    43    25    45    1
    44    26    27    1
    45    26    46    1
    46    26    47    1
    47    27    28    1
    48    27    29    1
    49    27    30    1
    50    29    48    1
    51    29    49    1
    52    29    50    1
@<TRIPOS>SUBSTRUCTURE
     1 ZINC000055987960        1 TEMP              0 ****  ****    0 ROOT


##########                                Name:      oleObject5.pdb
##########                DOCK_Rotatable_Bonds:                   5
##########                         Heavy_Atoms:                  24
##########                    Molecular_Weight:             323.438
##########                DOCK_Rotatable_Bonds:                   5
##########                       Formal_Charge:         0.000200074
##########                     HBond_Acceptors:                   4
##########                        HBond_Donors:                   2
##########                         Heavy_Atoms:                  24
##########                          Grid_Score:          -23.337423
##########                     Grid_vdw_energy:          -23.565594
##########                      Grid_es_energy:            0.228170
##########           Internal_energy_repulsive:           11.766435

@<TRIPOS>MOLECULE
oleObject5.pdb
 49 51 1 0 0
SMALL
NO_CHARGES


@<TRIPOS>ATOM
      1 C         -10.7682   -0.4483   52.8145 C.3     1  UNL        -0.0394
      2 C         -11.0179    0.9804   52.3411 C.ar    1  UNL        -0.0456
      3 C         -12.2520    1.2635   51.7233 C.ar    1  UNL        -0.0590
      4 C         -12.5394    2.5496   51.2449 C.ar    1  UNL        -0.0620
      5 C         -11.5883    3.5687   51.3751 C.ar    1  UNL        -0.0619
      6 C         -10.3553    3.2989   51.9858 C.ar    1  UNL        -0.0565
      7 C         -10.0540    2.0129   52.4825 C.ar    1  UNL        -0.0188
      8 C          -8.6742    1.7795   53.1126 C.3     1  UNL         0.0906
      9 N          -7.6462    1.7874   52.0569 N.am    1  UNL        -0.3025
     10 C          -6.4347    1.1310   52.1789 C.2     1  UNL         0.2156
     11 O          -6.2034    0.3658   53.0992 O.2     1  UNL        -0.2774
     12 C          -5.5177    1.2781   50.9498 C.3     1  UNL         0.0382
     13 C          -4.0292    1.4249   51.3645 C.3     1  UNL        -0.0292
     14 C          -3.7328    2.8241   51.9469 C.3     1  UNL        -0.0041
     15 N          -4.1077    3.8781   50.9886 N.4     1  UNL        -0.3167
     16 C          -5.5293    3.8385   50.6019 C.3     1  UNL        -0.0041
     17 C          -5.9279    2.4568   50.0248 C.3     1  UNL        -0.0292
     18 C          -8.3824    2.7855   54.2393 C.ar    1  UNL         0.0681
     19 N          -7.4192    3.7070   53.9946 N.ar    1  UNL        -0.2587
     20 C          -7.1236    4.6210   54.9378 C.ar    1  UNL         0.0272
     21 C          -7.7775    4.6672   56.1776 C.ar    1  UNL        -0.0435
     22 C          -8.7799    3.7236   56.4432 C.ar    1  UNL        -0.0559
     23 C          -9.0962    2.7629   55.4639 C.ar    1  UNL        -0.0272
     24 C         -10.1917    1.7432   55.7489 C.3     1  UNL        -0.0379
     25 H         -11.6764   -1.0599   52.7471 H       1  UNL         0.0280
     26 H         -10.4415   -0.4813   53.8597 H       1  UNL         0.0280
     27 H         -10.0055   -0.9392   52.2004 H       1  UNL         0.0280
     28 H         -12.9951    0.4794   51.6069 H       1  UNL         0.0626
     29 H         -13.4946    2.7532   50.7693 H       1  UNL         0.0623
     30 H         -11.8031    4.5652   50.9999 H       1  UNL         0.0623
     31 H          -9.6256    4.0991   52.0659 H       1  UNL         0.0627
     32 H          -8.6446    0.7865   53.5708 H       1  UNL         0.0624
     33 H          -7.9864    1.9386   51.1163 H       1  UNL         0.1504
     34 H          -5.6214    0.3486   50.3749 H       1  UNL         0.0402
     35 H          -3.3951    1.2688   50.4822 H       1  UNL         0.0288
     36 H          -3.7464    0.6521   52.0900 H       1  UNL         0.0288
     37 H          -2.6643    2.9018   52.1839 H       1  UNL         0.0428
     38 H          -4.2932    2.9557   52.8819 H       1  UNL         0.0428
     39 H          -3.5351    3.7790   50.1511 H       1  UNL         0.1222
     40 H          -5.7297    4.6156   49.8537 H       1  UNL         0.0428
     41 H          -6.1491    4.0620   51.4791 H       1  UNL         0.0428
     42 H          -5.4324    2.3307   49.0535 H       1  UNL         0.0288
     43 H          -7.0078    2.4290   49.8303 H       1  UNL         0.0288
     44 H          -6.3400    5.3365   54.6915 H       1  UNL         0.0840
     45 H          -7.5135    5.4192   56.9152 H       1  UNL         0.0639
     46 H          -9.3032    3.7406   57.3951 H       1  UNL         0.0627
     47 H         -10.6271    1.8858   56.7458 H       1  UNL         0.0280
     48 H          -9.7995    0.7196   55.7089 H       1  UNL         0.0280
     49 H         -11.0088    1.8287   55.0223 H       1  UNL         0.0280
@<TRIPOS>BOND
     1     1     2    1
     2     1    25    1
     3     1    26    1
     4     1    27    1
     5     2     3   ar
     6     2     7   ar
     7     3     4   ar
     8     3    28    1
     9     4     5   ar
    10     4    29    1
    11     5     6   ar
    12     5    30    1
    13     6     7   ar
    14     6    31    1
    15     7     8    1
    16     8     9    1
    17     8    18    1
    18     8    32    1
    19     9    10   am
    20     9    33    1
    21    10    11    2
    22    10    12    1
    23    12    13    1
    24    12    17    1
    25    12    34    1
    26    13    14    1
    27    13    35    1
    28    13    36    1
    29    14    15    1
    30    14    37    1
    31    14    38    1
    32    15    16    1
    33    15    39    1
    34    16    17    1
    35    16    40    1
    36    16    41    1
    37    17    42    1
    38    17    43    1
    39    18    19   ar
    40    18    23   ar
    41    19    20   ar
    42    20    21   ar
    43    20    44    1
    44    21    22   ar
    45    21    45    1
    46    22    23   ar
    47    22    46    1
    48    23    24    1
    49    24    47    1
    50    24    48    1
    51    24    49    1
@<TRIPOS>SUBSTRUCTURE
     1 UNL         1 TEMP              0 ****  ****    0 ROOT


##########                                Name:    ZINC000518937710
##########                DOCK_Rotatable_Bonds:                   6
##########                         Heavy_Atoms:                  25
##########                    Molecular_Weight:             397.421
##########                DOCK_Rotatable_Bonds:                   6
##########                       Formal_Charge:          -0.0199997
##########                     HBond_Acceptors:                  11
##########                        HBond_Donors:                   0
##########                         Heavy_Atoms:                  25
##########                          Grid_Score:          -23.317116
##########                     Grid_vdw_energy:          -22.764736
##########                      Grid_es_energy:           -0.552380
##########           Internal_energy_repulsive:           22.587305

@<TRIPOS>MOLECULE
ZINC000518937710
 42 44 1 0 0
SMALL
USER_CHARGES


@<TRIPOS>ATOM
      1 C1         -7.3755    4.3336   52.3824 C.3     1  ZINC000518937710   -0.1900
      2 C2         -7.4922    2.9325   52.9858 C.3     1  ZINC000518937710    0.1700
      3 H3         -8.2235    2.3537   52.4217 H       1  ZINC000518937710    0.1100
      4 C4         -6.1317    2.2353   52.9229 C.3     1  ZINC000518937710   -0.6600
      5 S5         -6.0888    1.1210   51.4921 S.o2    1  ZINC000518937710    2.4000
      6 C6         -7.1687   -0.2306   52.0372 C.3     1  ZINC000518937710   -0.6600
      7 O7         -6.7031    1.7751   50.3903 O.2     1  ZINC000518937710   -0.9200
      8 O8         -4.7680    0.6163   51.3508 O.2     1  ZINC000518937710   -0.9300
      9 N9         -7.9236    3.0363   54.3820 N.am    1  ZINC000518937710   -0.9600
     10 C10        -6.9389    2.9377   55.4622 C.3     1  ZINC000518937710    0.0800
     11 C11        -5.8340    3.9950   55.5097 C.3     1  ZINC000518937710   -0.1800
     12 C12        -6.9634    4.0217   56.5416 C.3     1  ZINC000518937710   -0.1800
     13 S13        -9.5244    3.2650   54.7392 S.o2    1  ZINC000518937710    2.6900
     14 O14        -9.6375    3.1714   56.1527 O.2     1  ZINC000518937710   -0.9400
     15 O15        -9.9416    4.4045   54.0000 O.2     1  ZINC000518937710   -0.9400
     16 C16       -10.4078    1.8916   54.0772 C.ar    1  ZINC000518937710   -0.6400
     17 C17       -10.9772    1.9773   52.8205 C.ar    1  ZINC000518937710   -0.0300
     18 C18       -11.6710    0.9017   52.2979 C.ar    1  ZINC000518937710   -0.1300
     19 C19       -11.7979   -0.2642   53.0297 C.ar    1  ZINC000518937710   -0.0300
     20 C20       -11.2299   -0.3571   54.2899 C.ar    1  ZINC000518937710    0.0200
     21 C21       -10.5266    0.7245   54.8143 C.ar    1  ZINC000518937710    0.1900
     22 O22       -10.0696    0.3874   56.0555 O.3     1  ZINC000518937710   -0.2800
     23 C23       -10.8451   -0.7590   56.4524 C.3     1  ZINC000518937710    0.5700
     24 F24       -10.0701   -1.6350   57.2199 F       1  ZINC000518937710   -0.1200
     25 F25       -11.9830   -0.3609   57.1624 F       1  ZINC000518937710   -0.1400
     26 O26       -11.2097   -1.3736   55.2008 O.3     1  ZINC000518937710   -0.2900
     27 H27        -6.6714    4.9241   52.9686 H       1  ZINC000518937710    0.1000
     28 H28        -7.0196    4.2583   51.3550 H       1  ZINC000518937710    0.0800
     29 H29        -8.3526    4.8166   52.3940 H       1  ZINC000518937710    0.0700
     30 H30        -5.3445    2.9828   52.8249 H       1  ZINC000518937710    0.1600
     31 H31        -5.9754    1.6606   53.8358 H       1  ZINC000518937710    0.1400
     32 H32        -8.1850    0.1435   52.1606 H       1  ZINC000518937710    0.1300
     33 H33        -7.1621   -1.0247   51.2904 H       1  ZINC000518937710    0.1300
     34 H34        -6.8080   -0.6230   52.9880 H       1  ZINC000518937710    0.1300
     35 H35        -6.6804    1.9250   55.7717 H       1  ZINC000518937710    0.1500
     36 H36        -4.8484    3.6781   55.8504 H       1  ZINC000518937710    0.1100
     37 H37        -5.8399    4.7641   54.7372 H       1  ZINC000518937710    0.1000
     38 H38        -7.7121    4.8082   56.4481 H       1  ZINC000518937710    0.1000
     39 H39        -6.7206    3.7223   57.5612 H       1  ZINC000518937710    0.1000
     40 H40       -10.8801    2.8865   52.2458 H       1  ZINC000518937710    0.1600
     41 H41       -12.1150    0.9726   51.3160 H       1  ZINC000518937710    0.1600
     42 H42       -12.3405   -1.1028   52.6189 H       1  ZINC000518937710    0.1500
@<TRIPOS>BOND
     1     1     2    1
     2     1    27    1
     3     1    28    1
     4     1    29    1
     5     2     3    1
     6     2     4    1
     7     2     9    1
     8     4     5    1
     9     4    30    1
    10     4    31    1
    11     5     6    1
    12     5     7    2
    13     5     8    2
    14     6    32    1
    15     6    33    1
    16     6    34    1
    17     9    10    1
    18     9    13   am
    19    10    12    1
    20    10    11    1
    21    10    35    1
    22    11    12    1
    23    11    36    1
    24    11    37    1
    25    12    38    1
    26    12    39    1
    27    13    14    2
    28    13    15    2
    29    13    16    1
    30    16    21   ar
    31    16    17   ar
    32    17    18   ar
    33    17    40    1
    34    18    19   ar
    35    18    41    1
    36    19    20   ar
    37    19    42    1
    38    20    26    1
    39    20    21   ar
    40    21    22    1
    41    22    23    1
    42    23    24    1
    43    23    25    1
    44    23    26    1
@<TRIPOS>SUBSTRUCTURE
     1 ZINC000518937710        1 TEMP              0 ****  ****    0 ROOT


##########                                Name:    ZINC000482962466
##########                DOCK_Rotatable_Bonds:                   2
##########                         Heavy_Atoms:                  25
##########                    Molecular_Weight:             404.303
##########                DOCK_Rotatable_Bonds:                   2
##########                       Formal_Charge:           0.0200002
##########                     HBond_Acceptors:                   4
##########                        HBond_Donors:                   0
##########                         Heavy_Atoms:                  25
##########                          Grid_Score:          -22.989481
##########                     Grid_vdw_energy:          -21.607029
##########                      Grid_es_energy:           -1.382452
##########           Internal_energy_repulsive:            5.865442

@<TRIPOS>MOLECULE
ZINC000482962466
 47 50 1 0 0
SMALL
USER_CHARGES


@<TRIPOS>ATOM
      1 C1         -6.7952    3.5929   55.4897 C.3     1  ZINC000482962466   -0.1400
      2 C2         -5.6547    3.7100   54.4766 C.3     1  ZINC000482962466    0.0700
      3 H3         -5.0571    2.7986   54.4943 H       1  ZINC000482962466    0.0700
      4 C4         -4.7707    4.9093   54.8368 C.3     1  ZINC000482962466    0.0800
      5 N5         -3.7983    5.1131   53.7514 N.am    1  ZINC000482962466   -0.6100
      6 C6         -2.4818    5.2351   54.0129 C.2     1  ZINC000482962466    0.5600
      7 O7         -1.6943    5.4028   53.1021 O.2     1  ZINC000482962466   -0.5200
      8 C8         -1.9957    5.1648   55.4064 C.ar    1  ZINC000482962466   -0.1100
      9 C9         -2.0768    6.3005   56.2318 C.ar    1  ZINC000482962466   -0.0700
     10 C10        -1.6370    6.2609   57.5153 C.ar    1  ZINC000482962466   -0.1000
     11 C11        -1.0914    5.0733   58.0362 C.ar    1  ZINC000482962466   -0.0400
     12 C12        -0.6300    5.0084   59.3612 C.ar    1  ZINC000482962466   -0.0700
     13 C13        -0.1068    3.8443   59.8377 C.ar    1  ZINC000482962466   -0.0800
     14 Br14        0.5121    3.7633   61.6227 Br      1  ZINC000482962466   -0.0400
     15 C15        -0.0212    2.7112   59.0290 C.ar    1  ZINC000482962466   -0.1000
     16 C16        -0.4577    2.7367   57.7406 C.ar    1  ZINC000482962466   -0.0900
     17 C17        -1.0045    3.9209   57.2137 C.ar    1  ZINC000482962466   -0.0500
     18 C18        -1.4687    3.9791   55.8917 C.ar    1  ZINC000482962466   -0.0700
     19 C19        -4.3063    5.1801   52.3717 C.3     1  ZINC000482962466    0.0700
     20 C20        -5.2145    3.9699   52.1322 C.3     1  ZINC000482962466    0.0800
     21 C21        -5.9087    4.1134   50.7755 C.3     1  ZINC000482962466   -0.1100
     22 C22        -6.7512    2.8615   50.5107 C.3     1  ZINC000482962466   -0.1500
     23 C23        -5.8496    1.6260   50.5773 C.3     1  ZINC000482962466    0.0600
     24 O24        -5.2124    1.5700   51.8551 O.3     1  ZINC000482962466   -0.3700
     25 C25        -4.3733    2.6918   52.1380 C.3     1  ZINC000482962466    0.0400
     26 O26        -6.1968    3.9001   53.1672 O.3     1  ZINC000482962466   -0.3500
     27 H27        -7.4244    2.7411   55.2318 H       1  ZINC000482962466    0.0700
     28 H28        -6.3812    3.4498   56.4879 H       1  ZINC000482962466    0.0800
     29 H29        -7.3925    4.5045   55.4714 H       1  ZINC000482962466    0.0700
     30 H30        -5.3885    5.8004   54.9481 H       1  ZINC000482962466    0.0800
     31 H31        -4.2430    4.7093   55.7695 H       1  ZINC000482962466    0.1000
     32 H32        -2.4941    7.2161   55.8392 H       1  ZINC000482962466    0.1400
     33 H33        -1.7056    7.1415   58.1369 H       1  ZINC000482962466    0.1400
     34 H34        -0.6892    5.8776   59.9994 H       1  ZINC000482962466    0.1400
     35 H35         0.3978    1.8006   59.4312 H       1  ZINC000482962466    0.1400
     36 H36        -0.3847    1.8520   57.1254 H       1  ZINC000482962466    0.1400
     37 H37        -1.4119    3.1080   55.2558 H       1  ZINC000482962466    0.1400
     38 H38        -4.8756    6.0994   52.2342 H       1  ZINC000482962466    0.0900
     39 H39        -3.4711    5.1567   51.6715 H       1  ZINC000482962466    0.1000
     40 H40        -6.5542    4.9916   50.7873 H       1  ZINC000482962466    0.0800
     41 H41        -5.1589    4.2207   49.9918 H       1  ZINC000482962466    0.0800
     42 H42        -7.5335    2.7826   51.2656 H       1  ZINC000482962466    0.0800
     43 H43        -7.2037    2.9294   49.5214 H       1  ZINC000482962466    0.0800
     44 H44        -6.4512    0.7289   50.4315 H       1  ZINC000482962466    0.1000
     45 H45        -5.0921    1.6865   49.7958 H       1  ZINC000482962466    0.0500
     46 H46        -3.5956    2.7651   51.3778 H       1  ZINC000482962466    0.0600
     47 H47        -3.9133    2.5638   53.1178 H       1  ZINC000482962466    0.1000
@<TRIPOS>BOND
     1     1     2    1
     2     1    27    1
     3     1    28    1
     4     1    29    1
     5     2     3    1
     6     2    26    1
     7     2     4    1
     8     4     5    1
     9     4    30    1
    10     4    31    1
    11     5     6   am
    12     5    19    1
    13     6     7    2
    14     6     8    1
    15     8    18   ar
    16     8     9   ar
    17     9    10   ar
    18     9    32    1
    19    10    11   ar
    20    10    33    1
    21    11    17   ar
    22    11    12   ar
    23    12    13   ar
    24    12    34    1
    25    13    14    1
    26    13    15   ar
    27    15    16   ar
    28    15    35    1
    29    16    17   ar
    30    16    36    1
    31    17    18   ar
    32    18    37    1
    33    19    20    1
    34    19    38    1
    35    19    39    1
    36    20    25    1
    37    20    21    1
    38    20    26    1
    39    21    22    1
    40    21    40    1
    41    21    41    1
    42    22    23    1
    43    22    42    1
    44    22    43    1
    45    23    24    1
    46    23    44    1
    47    23    45    1
    48    24    25    1
    49    25    46    1
    50    25    47    1
@<TRIPOS>SUBSTRUCTURE
     1 ZINC000482962466        1 TEMP              0 ****  ****    0 ROOT


##########                                Name:    ZINC000012087388
##########                DOCK_Rotatable_Bonds:                   5
##########                         Heavy_Atoms:                  29
##########                    Molecular_Weight:              418.52
##########                DOCK_Rotatable_Bonds:                   5
##########                       Formal_Charge:          -0.0499999
##########                     HBond_Acceptors:                  10
##########                        HBond_Donors:                   1
##########                         Heavy_Atoms:                  29
##########                          Grid_Score:          -22.956806
##########                     Grid_vdw_energy:          -20.398685
##########                      Grid_es_energy:           -2.558121
##########           Internal_energy_repulsive:           30.440798

@<TRIPOS>MOLECULE
ZINC000012087388
 55 58 1 0 0
SMALL
USER_CHARGES


@<TRIPOS>ATOM
      1 C1        -14.4066    4.1860   49.3400 C.3     1  <0>        -0.6600
      2 S2        -12.8060    3.4334   49.7428 S.o2    1  <0>         2.5100
      3 O3        -12.5527    2.3186   48.8989 O.2     1  <0>        -0.9400
      4 O4        -11.8206    4.4366   49.9468 O.2     1  <0>        -0.9300
      5 C5        -13.0423    2.7255   51.3389 C.ar    1  <0>        -0.8400
      6 C6        -12.3824    3.2370   52.4450 C.ar    1  <0>         0.3000
      7 N7        -12.5823    2.6825   53.6292 N.ar    1  <0>        -0.5800
      8 C8        -13.4019    1.6504   53.7641 C.ar    1  <0>         0.6000
      9 N9        -13.5878    1.0946   55.0180 N.pl3   1  <0>        -0.5700
     10 C10       -12.4419    0.6101   55.7995 C.3     1  <0>         0.1200
     11 C11       -12.4736    1.2695   57.1818 C.3     1  <0>        -0.1400
     12 C12       -13.8335    1.0118   57.8346 C.3     1  <0>        -0.1200
     13 C13       -14.9386    1.6333   56.9774 C.3     1  <0>        -0.1400
     14 C14       -14.9343    0.9834   55.5953 C.3     1  <0>         0.1200
     15 N15       -14.0482    1.1378   52.7272 N.ar    1  <0>        -0.5700
     16 C16       -13.8967    1.6483   51.5164 C.ar    1  <0>         0.3200
     17 C17       -14.6355    1.0594   50.3425 C.3     1  <0>        -0.0700
     18 C18       -14.0802   -0.3337   50.0374 C.3     1  <0>        -0.1300
     19 C19       -14.8099   -0.9150   48.8223 C.3     1  <0>         0.0900
     20 N20       -16.2560   -0.8850   49.0801 N.am    1  <0>        -0.6100
     21 C21       -16.9980   -2.0038   48.9612 C.2     1  <0>         0.5900
     22 O22       -18.1943   -1.9659   49.1775 O.2     1  <0>        -0.5100
     23 C23       -16.3608   -3.2713   48.5699 C.2     1  <0>        -0.0400
     24 C24       -16.1578   -4.3812   49.3714 C.2     1  <0>        -0.1500
     25 C25       -15.5225   -5.3177   48.5527 C.2     1  <0>         0.0000
     26 N26       -15.3739   -4.7803   47.3688 N.2     1  <0>        -0.2700
     27 N27       -15.8563   -3.5903   47.3412 N.pl3   1  <0>        -0.3900
     28 C28       -16.8778    0.3877   49.4703 C.3     1  <0>         0.1100
     29 C29       -16.1250    0.9544   50.6781 C.3     1  <0>        -0.1200
     30 H30       -15.1786    3.4165   49.3336 H       1  <0>         0.1400
     31 H31       -14.6518    4.9404   50.0875 H       1  <0>         0.1300
     32 H32       -14.3512    4.6533   48.3567 H       1  <0>         0.1400
     33 H33       -11.7128    4.0780   52.3413 H       1  <0>         0.1900
     34 H34       -12.5062   -0.4725   55.9095 H       1  <0>         0.0700
     35 H35       -11.5149    0.8732   55.2901 H       1  <0>         0.1000
     36 H36       -11.6851    0.8470   57.8046 H       1  <0>         0.0800
     37 H37       -12.3183    2.3433   57.0763 H       1  <0>         0.0700
     38 H38       -13.9989   -0.0625   57.9173 H       1  <0>         0.0700
     39 H39       -13.8499    1.4591   58.8285 H       1  <0>         0.0700
     40 H40       -15.9048    1.4696   57.4548 H       1  <0>         0.0800
     41 H41       -14.7601    2.7036   56.8738 H       1  <0>         0.0700
     42 H42       -15.6527    1.4904   54.9511 H       1  <0>         0.1000
     43 H43       -15.2010   -0.0695   55.6859 H       1  <0>         0.0700
     44 H44       -14.5039    1.7013   49.4715 H       1  <0>         0.1000
     45 H45       -13.0143   -0.2611   49.8212 H       1  <0>         0.0800
     46 H46       -14.2339   -0.9834   50.8991 H       1  <0>         0.0900
     47 H47       -14.5835   -0.3168   47.9396 H       1  <0>         0.0800
     48 H48       -14.4887   -1.9440   48.6610 H       1  <0>         0.0900
     49 H49       -16.4323   -4.4983   50.4094 H       1  <0>         0.1700
     50 H50       -15.2092   -6.3090   48.8450 H       1  <0>         0.1900
     51 H51       -15.8563   -3.0048   46.5679 H       1  <0>         0.4400
     52 H52       -16.8202    1.0921   48.6404 H       1  <0>         0.0800
     53 H53       -17.9211    0.2182   49.7365 H       1  <0>         0.1000
     54 H54       -16.2594    0.2927   51.5337 H       1  <0>         0.0800
     55 H55       -16.5145    1.9438   50.9181 H       1  <0>         0.0900
@<TRIPOS>BOND
     1     1     2    1
     2     1    30    1
     3     1    31    1
     4     1    32    1
     5     2     3    2
     6     2     4    2
     7     2     5    1
     8     5    16   ar
     9     5     6   ar
    10     6     7   ar
    11     6    33    1
    12     7     8   ar
    13     8     9    1
    14     8    15   ar
    15     9    14    1
    16     9    10    1
    17    10    11    1
    18    10    34    1
    19    10    35    1
    20    11    12    1
    21    11    36    1
    22    11    37    1
    23    12    13    1
    24    12    38    1
    25    12    39    1
    26    13    14    1
    27    13    40    1
    28    13    41    1
    29    14    42    1
    30    14    43    1
    31    15    16   ar
    32    16    17    1
    33    17    29    1
    34    17    18    1
    35    17    44    1
    36    18    19    1
    37    18    45    1
    38    18    46    1
    39    19    20    1
    40    19    47    1
    41    19    48    1
    42    20    21   am
    43    20    28    1
    44    21    22    2
    45    21    23    1
    46    23    27    1
    47    23    24    2
    48    24    25    1
    49    24    49    1
    50    25    26    2
    51    25    50    1
    52    26    27    1
    53    27    51    1
    54    28    29    1
    55    28    52    1
    56    28    53    1
    57    29    54    1
    58    29    55    1
@<TRIPOS>SUBSTRUCTURE
     1 <0>         1 TEMP              0 ****  ****    0 ROOT


##########                                Name:    ZINC000820901229
##########                DOCK_Rotatable_Bonds:                   3
##########                         Heavy_Atoms:                  18
##########                    Molecular_Weight:             331.233
##########                DOCK_Rotatable_Bonds:                   3
##########                       Formal_Charge:           0.0099999
##########                     HBond_Acceptors:                   5
##########                        HBond_Donors:                   1
##########                         Heavy_Atoms:                  18
##########                          Grid_Score:          -22.659184
##########                     Grid_vdw_energy:          -20.990820
##########                      Grid_es_energy:           -1.668364
##########           Internal_energy_repulsive:            2.805465

@<TRIPOS>MOLECULE
ZINC000820901229
 33 35 1 0 0
SMALL
USER_CHARGES


@<TRIPOS>ATOM
      1 O1         -7.7125    3.3905   52.6763 O.2     1  ZINC000820901229   -0.5300
      2 C2         -7.5165    3.9023   51.5904 C.2     1  ZINC000820901229    0.6000
      3 N3         -6.2565    4.1347   51.1725 N.am    1  ZINC000820901229   -0.7100
      4 C4         -5.1229    3.7764   52.0286 C.3     1  ZINC000820901229    0.1600
      5 H5         -5.4018    2.9546   52.6882 H       1  ZINC000820901229    0.1000
      6 C6         -4.6923    4.9936   52.8627 C.3     1  ZINC000820901229   -0.1300
      7 C7         -3.4718    4.6785   53.7223 C.3     1  ZINC000820901229   -0.1100
      8 C8         -2.3103    4.1391   52.8713 C.3     1  ZINC000820901229   -0.1100
      9 C9         -2.8157    2.9097   52.1449 C.3     1  ZINC000820901229    0.0800
     10 H10        -3.2252    2.2006   52.8644 H       1  ZINC000820901229    0.0700
     11 O11        -1.9114    2.2402   51.2736 O.3     1  ZINC000820901229   -0.3700
     12 C12        -2.7450    1.4182   50.4174 C.3     1  ZINC000820901229    0.0500
     13 C13        -4.1318    2.1072   50.3345 C.3     1  ZINC000820901229   -0.1500
     14 C14        -3.9362    3.3715   51.1720 C.3     1  ZINC000820901229   -0.1400
     15 H15        -3.6019    4.2013   50.5494 H       1  ZINC000820901229    0.0900
     16 C16        -8.6559    4.2625   50.7298 C.2     1  ZINC000820901229    0.0100
     17 C17        -8.5213    4.9568   49.5779 C.2     1  ZINC000820901229   -0.2200
     18 S18       -10.0660    5.1706   48.8781 S.3     1  ZINC000820901229    0.3100
     19 C19       -10.8033    4.3210   50.1630 C.2     1  ZINC000820901229   -0.0100
     20 Br20      -12.6599    3.9946   50.3134 Br      1  ZINC000820901229    0.0700
     21 N21        -9.9186    3.9285   51.0119 N.2     1  ZINC000820901229   -0.4100
     22 H22        -6.1001    4.5391   50.3048 H       1  ZINC000820901229    0.4100
     23 H23        -4.4521    5.8183   52.1917 H       1  ZINC000820901229    0.0700
     24 H24        -5.5169    5.2914   53.5103 H       1  ZINC000820901229    0.0700
     25 H25        -3.1494    5.5873   54.2305 H       1  ZINC000820901229    0.0800
     26 H26        -3.7442    3.9318   54.4681 H       1  ZINC000820901229    0.0700
     27 H27        -1.9979    4.8938   52.1495 H       1  ZINC000820901229    0.0700
     28 H28        -1.4724    3.8710   53.5149 H       1  ZINC000820901229    0.0800
     29 H29        -2.3037    1.3513   49.4230 H       1  ZINC000820901229    0.0900
     30 H30        -2.8505    0.4222   50.8474 H       1  ZINC000820901229    0.0600
     31 H31        -4.3728    2.3649   49.3031 H       1  ZINC000820901229    0.0800
     32 H32        -4.9048    1.4701   50.7642 H       1  ZINC000820901229    0.0800
     33 H33        -7.5900    5.3180   49.1673 H       1  ZINC000820901229    0.2000
@<TRIPOS>BOND
     1     1     2    2
     2     2     3   am
     3     2    16    1
     4     3     4    1
     5     3    22    1
     6     4     5    1
     7     4    14    1
     8     4     6    1
     9     6     7    1
    10     6    23    1
    11     6    24    1
    12     7     8    1
    13     7    25    1
    14     7    26    1
    15     8     9    1
    16     8    27    1
    17     8    28    1
    18     9    10    1
    19     9    14    1
    20     9    11    1
    21    11    12    1
    22    12    13    1
    23    12    29    1
    24    12    30    1
    25    13    14    1
    26    13    31    1
    27    13    32    1
    28    14    15    1
    29    16    21    1
    30    16    17    2
    31    17    18    1
    32    17    33    1
    33    18    19    1
    34    19    20    1
    35    19    21    2
@<TRIPOS>SUBSTRUCTURE
     1 ZINC000820901229        1 TEMP              0 ****  ****    0 ROOT


##########                                Name:    ZINC001076281847
##########                DOCK_Rotatable_Bonds:                   4
##########                         Heavy_Atoms:                  24
##########                    Molecular_Weight:             362.883
##########                DOCK_Rotatable_Bonds:                   4
##########                       Formal_Charge:         -0.00999959
##########                     HBond_Acceptors:                   7
##########                        HBond_Donors:                   0
##########                         Heavy_Atoms:                  24
##########                          Grid_Score:          -22.538454
##########                     Grid_vdw_energy:          -22.549856
##########                      Grid_es_energy:            0.011402
##########           Internal_energy_repulsive:            8.430446

@<TRIPOS>MOLECULE
ZINC001076281847
 43 46 1 0 0
SMALL
USER_CHARGES


@<TRIPOS>ATOM
      1 C1          1.1012    3.3781   52.0338 C.3     1  ZINC001076281847   -0.0900
      2 C2         -0.3480    3.2455   51.6422 C.2     1  ZINC001076281847    0.1400
      3 N3         -0.7332    2.3957   50.7358 N.2     1  ZINC001076281847   -0.4600
      4 S4         -2.4156    2.5515   50.5871 S.3     1  ZINC001076281847    0.2500
      5 C5         -2.5785    3.7862   51.7741 C.2     1  ZINC001076281847   -0.2100
      6 C6         -3.8495    4.4655   52.2150 C.3     1  ZINC001076281847    0.1200
      7 N7         -4.7875    4.5294   51.0863 N.3     1  ZINC001076281847   -0.5000
      8 C8         -5.7299    5.6478   51.2465 C.3     1  ZINC001076281847    0.0300
      9 C9         -7.1031    5.1457   50.7617 C.3     1  ZINC001076281847   -0.1000
     10 H10        -7.3222    5.4137   49.7281 H       1  ZINC001076281847    0.1200
     11 C11        -8.1803    5.6311   51.7670 C.3     1  ZINC001076281847   -0.1300
     12 C12        -7.9292    4.6956   52.9752 C.3     1  ZINC001076281847    0.1000
     13 N13        -7.5837    3.3930   52.3779 N.am    1  ZINC001076281847   -0.6000
     14 C14        -7.7354    2.1928   52.9718 C.2     1  ZINC001076281847    0.5700
     15 O15        -7.4156    1.1789   52.3832 O.2     1  ZINC001076281847   -0.4900
     16 C16        -8.2915    2.1095   54.3417 C.ar    1  ZINC001076281847   -0.0800
     17 C17        -9.6169    1.7197   54.5568 C.ar    1  ZINC001076281847   -0.1800
     18 C18       -10.0946    1.6550   55.8514 C.ar    1  ZINC001076281847    0.1000
     19 N19        -9.3202    1.9544   56.8751 N.ar    1  ZINC001076281847   -0.4500
     20 C20        -8.0657    2.3264   56.7184 C.ar    1  ZINC001076281847    0.1100
     21 C21        -7.5033    2.4132   55.4578 C.ar    1  ZINC001076281847   -0.0500
     22 Cl22       -5.8496    2.9037   55.2621 Cl      1  ZINC001076281847   -0.0100
     23 C23        -7.0391    3.6141   51.0084 C.3     1  ZINC001076281847    0.1000
     24 H24        -7.6051    3.0560   50.2624 H       1  ZINC001076281847    0.1100
     25 C25        -5.5432    3.2744   50.9575 C.3     1  ZINC001076281847    0.0200
     26 C26        -1.3277    4.0148   52.2315 C.2     1  ZINC001076281847   -0.1800
     27 H27         1.3012    2.7523   52.9035 H       1  ZINC001076281847    0.0700
     28 H28         1.7324    3.0597   51.2041 H       1  ZINC001076281847    0.0800
     29 H29         1.3182    4.4182   52.2769 H       1  ZINC001076281847    0.0900
     30 H30        -4.2999    3.8995   53.0303 H       1  ZINC001076281847    0.1000
     31 H31        -3.6221    5.4755   52.5561 H       1  ZINC001076281847    0.1000
     32 H32        -5.7884    5.9385   52.2954 H       1  ZINC001076281847    0.0600
     33 H33        -5.4083    6.4957   50.6417 H       1  ZINC001076281847    0.0900
     34 H34        -8.0172    6.6735   52.0403 H       1  ZINC001076281847    0.0900
     35 H35        -9.1828    5.4873   51.3641 H       1  ZINC001076281847    0.0800
     36 H36        -7.1009    5.0683   53.5779 H       1  ZINC001076281847    0.0800
     37 H37        -8.8310    4.6080   53.5811 H       1  ZINC001076281847    0.0800
     38 H38       -10.2578    1.4731   53.7232 H       1  ZINC001076281847    0.1800
     39 H39       -11.1172    1.3551   56.0270 H       1  ZINC001076281847    0.1700
     40 H40        -7.4676    2.5624   57.5862 H       1  ZINC001076281847    0.1700
     41 H41        -5.3092    2.7803   50.0145 H       1  ZINC001076281847    0.1000
     42 H42        -5.2853    2.6200   51.7902 H       1  ZINC001076281847    0.0700
     43 H43        -1.1118    4.7480   52.9946 H       1  ZINC001076281847    0.1400
@<TRIPOS>BOND
     1     1     2    1
     2     1    27    1
     3     1    28    1
     4     1    29    1
     5     2    26    1
     6     2     3    2
     7     3     4    1
     8     4     5    1
     9     5     6    1
    10     5    26    2
    11     6     7    1
    12     6    30    1
    13     6    31    1
    14     7    25    1
    15     7     8    1
    16     8     9    1
    17     8    32    1
    18     8    33    1
    19     9    10    1
    20     9    23    1
    21     9    11    1
    22    11    12    1
    23    11    34    1
    24    11    35    1
    25    12    13    1
    26    12    36    1
    27    12    37    1
    28    13    14   am
    29    13    23    1
    30    14    15    2
    31    14    16    1
    32    16    21   ar
    33    16    17   ar
    34    17    18   ar
    35    17    38    1
    36    18    19   ar
    37    18    39    1
    38    19    20   ar
    39    20    21   ar
    40    20    40    1
    41    21    22    1
    42    23    24    1
    43    23    25    1
    44    25    41    1
    45    25    42    1
    46    26    43    1
@<TRIPOS>SUBSTRUCTURE
     1 ZINC001076281847        1 TEMP              0 ****  ****    0 ROOT


##########                                Name:    ZINC000010935976
##########                DOCK_Rotatable_Bonds:                   3
##########                         Heavy_Atoms:                  26
##########                    Molecular_Weight:             391.558
##########                DOCK_Rotatable_Bonds:                   3
##########                       Formal_Charge:         -0.00999979
##########                     HBond_Acceptors:                   7
##########                        HBond_Donors:                   1
##########                         Heavy_Atoms:                  26
##########                          Grid_Score:          -22.291916
##########                     Grid_vdw_energy:          -22.790512
##########                      Grid_es_energy:            0.498596
##########           Internal_energy_repulsive:          127.427315

@<TRIPOS>MOLECULE
ZINC000010935976
 51 54 1 0 0
SMALL
USER_CHARGES


@<TRIPOS>ATOM
      1 C1          2.7097    3.8979   51.8937 C.3     1  ZINC000010935976   -0.0800
      2 C2          1.2447    3.7295   52.2042 C.2     1  ZINC000010935976   -0.2100
      3 C3          0.6188    4.3394   53.1918 C.2     1  ZINC000010935976   -0.0400
      4 C4          1.3164    5.2880   54.1323 C.3     1  ZINC000010935976   -0.1000
      5 C5         -0.7940    4.0267   53.3027 C.2     1  ZINC000010935976   -0.2300
      6 C6         -1.2099    3.1276   52.3233 C.2     1  ZINC000010935976    0.0900
      7 N7         -2.4976    2.7313   52.2849 N.2     1  ZINC000010935976   -0.4900
      8 C8         -3.3781    3.1721   53.1511 C.2     1  ZINC000010935976    0.3400
      9 S9         -5.0452    2.6120   53.0434 S.3     1  ZINC000010935976    0.0500
     10 C10        -5.0780    2.0514   51.3228 C.3     1  ZINC000010935976   -0.1000
     11 H11        -4.2142    1.4156   51.1283 H       1  ZINC000010935976    0.1400
     12 C12        -5.0468    3.2619   50.3867 C.3     1  ZINC000010935976   -0.1000
     13 C13        -5.8145    4.4257   50.9871 C.3     1  ZINC000010935976   -0.1300
     14 C14        -7.3080    4.1808   51.1017 C.3     1  ZINC000010935976   -0.1400
     15 C15        -7.6032    3.0803   52.1225 C.3     1  ZINC000010935976    0.0700
     16 N16        -7.5304    1.7762   51.4438 N.am    1  ZINC000010935976   -0.7200
     17 C17        -6.3511    1.2727   51.0656 C.2     1  ZINC000010935976    0.5400
     18 O18        -6.3037    0.1949   50.5116 O.2     1  ZINC000010935976   -0.5200
     19 N19        -3.0338    4.0539   54.1343 N.am    1  ZINC000010935976   -0.5100
     20 C20        -4.0479    4.5214   55.0826 C.3     1  ZINC000010935976    0.1200
     21 C21        -3.8298    3.8593   56.4588 C.3     1  ZINC000010935976   -0.1300
     22 C22        -2.9985    4.8976   57.2524 C.3     1  ZINC000010935976   -0.1300
     23 C23        -3.6109    6.2456   56.7972 C.3     1  ZINC000010935976   -0.1100
     24 C24        -3.9087    6.0387   55.2978 C.3     1  ZINC000010935976   -0.1200
     25 C25        -1.7653    4.4955   54.2372 C.2     1  ZINC000010935976    0.5600
     26 O26        -1.4525    5.2834   55.1133 O.2     1  ZINC000010935976   -0.5000
     27 S27         0.1523    2.7036   51.2943 S.3     1  ZINC000010935976    0.2100
     28 H28         2.9701    3.2882   51.0284 H       1  ZINC000010935976    0.0700
     29 H29         2.9169    4.9455   51.6756 H       1  ZINC000010935976    0.0800
     30 H30         3.3018    3.5815   52.7524 H       1  ZINC000010935976    0.0800
     31 H31         1.2620    6.3009   53.7332 H       1  ZINC000010935976    0.0700
     32 H32         0.8310    5.2552   55.1076 H       1  ZINC000010935976    0.0800
     33 H33         2.3609    4.9940   54.2361 H       1  ZINC000010935976    0.0700
     34 H34        -4.0118    3.5616   50.2219 H       1  ZINC000010935976    0.0900
     35 H35        -5.4970    2.9893   49.4322 H       1  ZINC000010935976    0.0900
     36 H36        -5.4177    4.6280   51.9819 H       1  ZINC000010935976    0.0700
     37 H37        -5.6531    5.3065   50.3656 H       1  ZINC000010935976    0.0800
     38 H38        -7.7992    5.1018   51.4154 H       1  ZINC000010935976    0.0800
     39 H39        -7.6976    3.8811   50.1288 H       1  ZINC000010935976    0.0700
     40 H40        -6.8652    3.1172   52.9239 H       1  ZINC000010935976    0.1100
     41 H41        -8.6021    3.2226   52.5352 H       1  ZINC000010935976    0.0900
     42 H42        -8.3438    1.2766   51.2714 H       1  ZINC000010935976    0.4000
     43 H43        -5.0446    4.2872   54.7086 H       1  ZINC000010935976    0.1000
     44 H44        -4.7854    3.6790   56.9511 H       1  ZINC000010935976    0.0800
     45 H45        -3.2738    2.9281   56.3503 H       1  ZINC000010935976    0.0700
     46 H46        -3.1282    4.7573   58.3256 H       1  ZINC000010935976    0.0600
     47 H47        -1.9452    4.8399   56.9786 H       1  ZINC000010935976    0.1100
     48 H48        -4.5311    6.4507   57.3442 H       1  ZINC000010935976    0.0600
     49 H49        -2.8951    7.0559   56.9356 H       1  ZINC000010935976    0.0700
     50 H50        -3.0866    6.4271   54.6967 H       1  ZINC000010935976    0.0800
     51 H51        -4.8382    6.5407   55.0289 H       1  ZINC000010935976    0.0700
@<TRIPOS>BOND
     1     1     2    1
     2     1    28    1
     3     1    29    1
     4     1    30    1
     5     2    27    1
     6     2     3    2
     7     3     4    1
     8     3     5    1
     9     4    31    1
    10     4    32    1
    11     4    33    1
    12     5    25    1
    13     5     6    2
    14     6     7    1
    15     6    27    1
    16     7     8    2
    17     8     9    1
    18     8    19    1
    19     9    10    1
    20    10    11    1
    21    10    17    1
    22    10    12    1
    23    12    13    1
    24    12    34    1
    25    12    35    1
    26    13    14    1
    27    13    36    1
    28    13    37    1
    29    14    15    1
    30    14    38    1
    31    14    39    1
    32    15    16    1
    33    15    40    1
    34    15    41    1
    35    16    17   am
    36    16    42    1
    37    17    18    2
    38    19    20    1
    39    19    25   am
    40    20    24    1
    41    20    21    1
    42    20    43    1
    43    21    22    1
    44    21    44    1
    45    21    45    1
    46    22    23    1
    47    22    46    1
    48    22    47    1
    49    23    24    1
    50    23    48    1
    51    23    49    1
    52    24    50    1
    53    24    51    1
    54    25    26    2
@<TRIPOS>SUBSTRUCTURE
     1 ZINC000010935976        1 TEMP              0 ****  ****    0 ROOT


##########                                Name:    ZINC000364058410
##########                DOCK_Rotatable_Bonds:                   5
##########                         Heavy_Atoms:                  25
##########                    Molecular_Weight:             358.464
##########                DOCK_Rotatable_Bonds:                   5
##########                       Formal_Charge:           0.0100002
##########                     HBond_Acceptors:                   7
##########                        HBond_Donors:                   0
##########                         Heavy_Atoms:                  25
##########                          Grid_Score:          -22.185795
##########                     Grid_vdw_energy:          -21.623573
##########                      Grid_es_energy:           -0.562222
##########           Internal_energy_repulsive:           62.343922

@<TRIPOS>MOLECULE
ZINC000364058410
 47 50 1 0 0
SMALL
USER_CHARGES


@<TRIPOS>ATOM
      1 C1        -15.9126    2.6644   55.8778 C.3     1  ZINC000364058410   -0.0700
      2 C2        -15.4716    1.7503   54.7637 C.2     1  ZINC000364058410   -0.2500
      3 C3        -14.4181    1.9516   53.9387 C.2     1  ZINC000364058410    0.0800
      4 N4        -14.3608    0.9096   53.0830 N.pl3   1  ZINC000364058410   -0.3600
      5 C5        -13.3717    0.7216   52.0189 C.3     1  ZINC000364058410    0.1300
      6 C6        -12.1705    1.6800   52.1128 C.3     1  ZINC000364058410    0.1100
      7 N7        -11.5262    0.6322   52.9282 N.am    1  ZINC000364058410   -0.6500
      8 C8        -10.5602    0.6271   53.8680 C.2     1  ZINC000364058410    0.5600
      9 O9        -10.2215   -0.4170   54.3837 O.2     1  ZINC000364058410   -0.5000
     10 C10        -9.9011    1.9187   54.2781 C.3     1  ZINC000364058410    0.1400
     11 H11       -10.5555    2.7561   54.0355 H       1  ZINC000364058410    0.0900
     12 C12        -9.6284    1.9002   55.7855 C.3     1  ZINC000364058410   -0.1200
     13 C13        -8.8358    3.1511   56.1719 C.3     1  ZINC000364058410   -0.1200
     14 C14        -7.4928    3.1530   55.4380 C.3     1  ZINC000364058410   -0.1400
     15 C15        -7.7414    3.1858   53.9267 C.3     1  ZINC000364058410    0.1000
     16 N16        -8.6250    2.0684   53.5655 N.am    1  ZINC000364058410   -0.6000
     17 C17        -8.2689    1.1950   52.6027 C.2     1  ZINC000364058410    0.5900
     18 O18        -9.0095    0.2738   52.3129 O.2     1  ZINC000364058410   -0.4900
     19 C19        -6.9899    1.3547   51.9048 C.2     1  ZINC000364058410   -0.2600
     20 C20        -5.8252    0.7176   52.2289 C.2     1  ZINC000364058410   -0.0600
     21 C21        -4.7756    1.0522   51.4065 C.2     1  ZINC000364058410   -0.1400
     22 C22        -5.0683    1.9324   50.4419 C.2     1  ZINC000364058410   -0.2400
     23 S23        -6.7103    2.3907   50.5120 S.3     1  ZINC000364058410    0.2100
     24 C24       -12.3646   -0.4080   52.3011 C.3     1  ZINC000364058410    0.0900
     25 N25       -15.4139    0.0392   53.3924 N.2     1  ZINC000364058410   -0.3000
     26 C26       -16.0753    0.5411   54.4037 C.2     1  ZINC000364058410    0.0500
     27 H27       -15.4054    2.3833   56.8007 H       1  ZINC000364058410    0.0600
     28 H28       -15.6609    3.6941   55.6240 H       1  ZINC000364058410    0.0600
     29 H29       -16.9905    2.5769   56.0144 H       1  ZINC000364058410    0.0600
     30 H30       -13.7439    2.7950   53.9610 H       1  ZINC000364058410    0.1700
     31 H31       -13.8195    0.6725   51.0264 H       1  ZINC000364058410    0.1300
     32 H32       -11.6762    1.8598   51.1581 H       1  ZINC000364058410    0.1100
     33 H33       -12.3820    2.5969   52.6630 H       1  ZINC000364058410    0.0900
     34 H34       -10.5746    1.8876   56.3262 H       1  ZINC000364058410    0.0800
     35 H35        -9.0515    1.0110   56.0398 H       1  ZINC000364058410    0.0800
     36 H36        -9.4024    4.0400   55.8947 H       1  ZINC000364058410    0.0700
     37 H37        -8.6617    3.1526   57.2479 H       1  ZINC000364058410    0.0800
     38 H38        -6.9192    4.0322   55.7314 H       1  ZINC000364058410    0.0800
     39 H39        -6.9361    2.2521   55.6957 H       1  ZINC000364058410    0.0700
     40 H40        -8.2176    4.1279   53.6551 H       1  ZINC000364058410    0.0800
     41 H41        -6.7932    3.0877   53.3983 H       1  ZINC000364058410    0.0900
     42 H42        -5.7379    0.0210   53.0495 H       1  ZINC000364058410    0.1500
     43 H43        -3.7869    0.6354   51.5301 H       1  ZINC000364058410    0.1500
     44 H44        -4.3606    2.3003   49.7138 H       1  ZINC000364058410    0.1700
     45 H45       -12.7311   -1.1583   53.0018 H       1  ZINC000364058410    0.0900
     46 H46       -11.9273   -0.8417   51.4018 H       1  ZINC000364058410    0.1100
     47 H47       -16.9423    0.1014   54.8742 H       1  ZINC000364058410    0.1800
@<TRIPOS>BOND
     1     1     2    1
     2     1    27    1
     3     1    28    1
     4     1    29    1
     5     2    26    1
     6     2     3    2
     7     3     4    1
     8     3    30    1
     9     4     5    1
    10     4    25    1
    11     5    24    1
    12     5     6    1
    13     5    31    1
    14     6     7    1
    15     6    32    1
    16     6    33    1
    17     7     8   am
    18     7    24    1
    19     8     9    2
    20     8    10    1
    21    10    11    1
    22    10    16    1
    23    10    12    1
    24    12    13    1
    25    12    34    1
    26    12    35    1
    27    13    14    1
    28    13    36    1
    29    13    37    1
    30    14    15    1
    31    14    38    1
    32    14    39    1
    33    15    16    1
    34    15    40    1
    35    15    41    1
    36    16    17   am
    37    17    18    2
    38    17    19    1
    39    19    23    1
    40    19    20    2
    41    20    21    1
    42    20    42    1
    43    21    22    2
    44    21    43    1
    45    22    23    1
    46    22    44    1
    47    24    45    1
    48    24    46    1
    49    25    26    2
    50    26    47    1
@<TRIPOS>SUBSTRUCTURE
     1 ZINC000364058410        1 TEMP              0 ****  ****    0 ROOT


##########                                Name:    ZINC000931749147
##########                DOCK_Rotatable_Bonds:                   5
##########                         Heavy_Atoms:                  25
##########                    Molecular_Weight:             354.397
##########                DOCK_Rotatable_Bonds:                   5
##########                       Formal_Charge:        -4.76837e-07
##########                     HBond_Acceptors:                   7
##########                        HBond_Donors:                   1
##########                         Heavy_Atoms:                  25
##########                          Grid_Score:          -22.173218
##########                     Grid_vdw_energy:          -22.159700
##########                      Grid_es_energy:           -0.013518
##########           Internal_energy_repulsive:           83.098915

@<TRIPOS>MOLECULE
ZINC000931749147
 49 51 1 0 0
SMALL
USER_CHARGES


@<TRIPOS>ATOM
      1 C1         -7.8280    3.7291   53.6010 C.3     1  ZINC000931749147   -0.1100
      2 C2         -7.1800    2.5966   52.8469 C.ar    1  ZINC000931749147   -0.1300
      3 C3         -7.6145    1.2930   53.0431 C.ar    1  ZINC000931749147    0.1800
      4 N4         -8.6557    1.0288   53.9418 N.am    1  ZINC000931749147   -0.6800
      5 C5         -9.9210    0.9136   53.4921 C.2     1  ZINC000931749147    0.7100
      6 O6        -10.1586    1.0390   52.3062 O.2     1  ZINC000931749147   -0.5500
      7 N7        -10.9230    0.6595   54.3569 N.am    1  ZINC000931749147   -0.6200
      8 C8        -10.6600    0.5037   55.7963 C.3     1  ZINC000931749147    0.0700
      9 C9        -11.3225   -0.7947   56.2711 C.3     1  ZINC000931749147    0.0500
     10 O10       -12.6955   -0.7955   55.8728 O.3     1  ZINC000931749147   -0.3700
     11 C11       -12.8943   -0.7695   54.4572 C.3     1  ZINC000931749147    0.0500
     12 C12       -12.3131    0.5356   53.8904 C.3     1  ZINC000931749147    0.1300
     13 H13       -12.9012    1.3829   54.2428 H       1  ZINC000931749147    0.0900
     14 C14       -12.3399    0.4903   52.3612 C.3     1  ZINC000931749147   -0.1100
     15 C15       -13.7432    0.1070   51.8870 C.3     1  ZINC000931749147   -0.1000
     16 C16       -14.7493    1.1615   52.3585 C.3     1  ZINC000931749147   -0.1500
     17 C17       -16.1364    0.8119   51.8133 C.3     1  ZINC000931749147    0.0600
     18 O18       -16.0815    0.7377   50.3872 O.3     1  ZINC000931749147   -0.3800
     19 C19       -15.1922   -0.2637   49.8888 C.3     1  ZINC000931749147    0.0600
     20 C20       -13.7671    0.0427   50.3567 C.3     1  ZINC000931749147   -0.1500
     21 C21        -7.0159    0.2511   52.3472 C.ar    1  ZINC000931749147   -0.1200
     22 C22        -5.9894    0.5125   51.4607 C.ar    1  ZINC000931749147   -0.1100
     23 C23        -5.5561    1.8125   51.2650 C.ar    1  ZINC000931749147    0.0500
     24 F24        -4.5520    2.0658   50.3974 F       1  ZINC000931749147   -0.1300
     25 C25        -6.1557    2.8558   51.9542 C.ar    1  ZINC000931749147    0.0900
     26 F26        -5.7318    4.1241   51.7622 F       1  ZINC000931749147   -0.1200
     27 H27        -8.6711    4.1128   53.0267 H       1  ZINC000931749147    0.0800
     28 H28        -8.1808    3.3676   54.5669 H       1  ZINC000931749147    0.0700
     29 H29        -7.1006    4.5262   53.7552 H       1  ZINC000931749147    0.0800
     30 H30        -8.4663    0.9288   54.8879 H       1  ZINC000931749147    0.4100
     31 H31        -9.5852    0.4521   55.9696 H       1  ZINC000931749147    0.0800
     32 H32       -11.0798    1.3501   56.3399 H       1  ZINC000931749147    0.0900
     33 H33       -10.8130   -1.6481   55.8236 H       1  ZINC000931749147    0.0600
     34 H34       -11.2584   -0.8600   57.3572 H       1  ZINC000931749147    0.1100
     35 H35       -12.3906   -1.6229   54.0032 H       1  ZINC000931749147    0.0600
     36 H36       -13.9611   -0.8169   54.2385 H       1  ZINC000931749147    0.1100
     37 H37       -12.0773    1.4707   51.9640 H       1  ZINC000931749147    0.1100
     38 H38       -11.6221   -0.2495   52.0070 H       1  ZINC000931749147    0.0700
     39 H39       -14.0137   -0.8660   52.2971 H       1  ZINC000931749147    0.0700
     40 H40       -14.7789    1.1752   53.4479 H       1  ZINC000931749147    0.0700
     41 H41       -14.4492    2.1421   51.9890 H       1  ZINC000931749147    0.0700
     42 H42       -16.4531   -0.1505   52.2153 H       1  ZINC000931749147    0.0500
     43 H43       -16.8484    1.5821   52.1100 H       1  ZINC000931749147    0.0900
     44 H44       -15.4965   -1.2402   50.2658 H       1  ZINC000931749147    0.0500
     45 H45       -15.2240   -0.2685   48.7993 H       1  ZINC000931749147    0.0900
     46 H46       -13.4472    1.0007   49.9468 H       1  ZINC000931749147    0.0700
     47 H47       -13.0944   -0.7438   50.0146 H       1  ZINC000931749147    0.0700
     48 H48        -7.3528   -0.7637   52.4992 H       1  ZINC000931749147    0.1800
     49 H49        -5.5240   -0.2983   50.9198 H       1  ZINC000931749147    0.1500
@<TRIPOS>BOND
     1     1     2    1
     2     1    27    1
     3     1    28    1
     4     1    29    1
     5     2    25   ar
     6     2     3   ar
     7     3     4    1
     8     3    21   ar
     9     4     5   am
    10     4    30    1
    11     5     6    2
    12     5     7   am
    13     7    12    1
    14     7     8    1
    15     8     9    1
    16     8    31    1
    17     8    32    1
    18     9    10    1
    19     9    33    1
    20     9    34    1
    21    10    11    1
    22    11    12    1
    23    11    35    1
    24    11    36    1
    25    12    13    1
    26    12    14    1
    27    14    15    1
    28    14    37    1
    29    14    38    1
    30    15    20    1
    31    15    16    1
    32    15    39    1
    33    16    17    1
    34    16    40    1
    35    16    41    1
    36    17    18    1
    37    17    42    1
    38    17    43    1
    39    18    19    1
    40    19    20    1
    41    19    44    1
    42    19    45    1
    43    20    46    1
    44    20    47    1
    45    21    22   ar
    46    21    48    1
    47    22    23   ar
    48    22    49    1
    49    23    24    1
    50    23    25   ar
    51    25    26    1
@<TRIPOS>SUBSTRUCTURE
     1 ZINC000931749147        1 TEMP              0 ****  ****    0 ROOT


##########                                Name:    ZINC000794876634
##########                DOCK_Rotatable_Bonds:                   4
##########                         Heavy_Atoms:                  24
##########                    Molecular_Weight:             389.249
##########                DOCK_Rotatable_Bonds:                   4
##########                       Formal_Charge:        -4.47035e-08
##########                     HBond_Acceptors:                   5
##########                        HBond_Donors:                   0
##########                         Heavy_Atoms:                  24
##########                          Grid_Score:          -22.160551
##########                     Grid_vdw_energy:          -22.423338
##########                      Grid_es_energy:            0.262787
##########           Internal_energy_repulsive:           56.744274

@<TRIPOS>MOLECULE
ZINC000794876634
 41 43 1 0 0
SMALL
USER_CHARGES


@<TRIPOS>ATOM
      1 C1          2.4279    4.3017   57.6265 C.3     1  ZINC000794876634    0.0200
      2 O2          2.2316    5.0126   56.4025 O.3     1  ZINC000794876634   -0.3000
      3 C3          1.0084    4.9130   55.8211 C.ar    1  ZINC000794876634    0.1300
      4 C4          0.0164    4.1495   56.4225 C.ar    1  ZINC000794876634   -0.1800
      5 C5         -1.2261    4.0439   55.8380 C.ar    1  ZINC000794876634   -0.0400
      6 C6         -2.2997    3.2143   56.4939 C.3     1  ZINC000794876634   -0.1200
      7 C7         -1.4915    4.7084   54.6334 C.ar    1  ZINC000794876634   -0.1000
      8 C8         -2.8129    4.5986   54.0087 C.2     1  ZINC000794876634    0.0600
      9 C9         -2.9659    3.8816   52.8574 C.2     1  ZINC000794876634   -0.1700
     10 C10        -1.9266    3.1569   52.1060 C.2     1  ZINC000794876634    0.5700
     11 O11        -0.7481    3.0842   52.4026 O.2     1  ZINC000794876634   -0.4900
     12 N12        -2.5086    2.5899   51.0361 N.am    1  ZINC000794876634   -0.5300
     13 C13        -1.7971    1.7807   50.0434 C.3     1  ZINC000794876634    0.0800
     14 C14        -3.8665    2.8651   50.9886 C.ar    1  ZINC000794876634    0.3700
     15 N15        -4.8051    2.5100   50.1200 N.ar    1  ZINC000794876634   -0.4900
     16 C16        -6.0608    2.8843   50.2596 C.ar    1  ZINC000794876634    0.1800
     17 C17        -6.4676    3.6701   51.3232 C.ar    1  ZINC000794876634   -0.1800
     18 Br18       -8.2780    4.1890   51.4937 Br      1  ZINC000794876634   -0.0200
     19 C19        -5.5296    4.0720   52.2632 C.ar    1  ZINC000794876634    0.0000
     20 C20        -4.2130    3.6567   52.0939 C.ar    1  ZINC000794876634   -0.1400
     21 C21        -0.4890    5.4791   54.0279 C.ar    1  ZINC000794876634   -0.1400
     22 C22         0.7509    5.5827   54.6244 C.ar    1  ZINC000794876634    0.0900
     23 O23         1.7257    6.3297   54.0402 O.3     1  ZINC000794876634   -0.3000
     24 C24         2.9882    6.3851   54.7073 C.3     1  ZINC000794876634    0.0200
     25 H25         3.4447    4.4660   57.9831 H       1  ZINC000794876634    0.1000
     26 H26         1.7187    4.6603   58.3726 H       1  ZINC000794876634    0.0600
     27 H27         2.2698    3.2365   57.4574 H       1  ZINC000794876634    0.0600
     28 H28         0.2201    3.6369   57.3510 H       1  ZINC000794876634    0.1400
     29 H29        -2.8755    3.8393   57.1766 H       1  ZINC000794876634    0.0800
     30 H30        -2.9610    2.8060   55.7298 H       1  ZINC000794876634    0.0700
     31 H31        -1.8391    2.3977   57.0499 H       1  ZINC000794876634    0.0700
     32 H32        -3.6653    5.0849   54.4593 H       1  ZINC000794876634    0.1500
     33 H33        -0.7428    1.7190   50.3134 H       1  ZINC000794876634    0.0900
     34 H34        -2.2248    0.7784   50.0176 H       1  ZINC000794876634    0.0800
     35 H35        -1.8942    2.2427   49.0610 H       1  ZINC000794876634    0.0800
     36 H36        -6.7893    2.5707   49.5265 H       1  ZINC000794876634    0.1800
     37 H37        -5.8146    4.6860   53.1047 H       1  ZINC000794876634    0.1600
     38 H38        -0.6879    5.9935   53.0993 H       1  ZINC000794876634    0.1400
     39 H39         2.8688    6.8820   55.6700 H       1  ZINC000794876634    0.0500
     40 H40         3.3608    5.3730   54.8644 H       1  ZINC000794876634    0.0600
     41 H41         3.6979    6.9427   54.0961 H       1  ZINC000794876634    0.1100
@<TRIPOS>BOND
     1     1     2    1
     2     1    25    1
     3     1    26    1
     4     1    27    1
     5     2     3    1
     6     3    22   ar
     7     3     4   ar
     8     4     5   ar
     9     4    28    1
    10     5     6    1
    11     5     7   ar
    12     6    29    1
    13     6    30    1
    14     6    31    1
    15     7     8    1
    16     7    21   ar
    17     8     9    2
    18     8    32    1
    19     9    20    1
    20     9    10    1
    21    10    11    2
    22    10    12   am
    23    12    13    1
    24    12    14    1
    25    13    33    1
    26    13    34    1
    27    13    35    1
    28    14    20   ar
    29    14    15   ar
    30    15    16   ar
    31    16    17   ar
    32    16    36    1
    33    17    18    1
    34    17    19   ar
    35    19    20   ar
    36    19    37    1
    37    21    22   ar
    38    21    38    1
    39    22    23    1
    40    23    24    1
    41    24    39    1
    42    24    40    1
    43    24    41    1
@<TRIPOS>SUBSTRUCTURE
     1 ZINC000794876634        1 TEMP              0 ****  ****    0 ROOT


##########                                Name:    ZINC000130059363
##########                DOCK_Rotatable_Bonds:                   4
##########                         Heavy_Atoms:                  29
##########                    Molecular_Weight:             389.497
##########                DOCK_Rotatable_Bonds:                   4
##########                       Formal_Charge:          -0.0100003
##########                     HBond_Acceptors:                   5
##########                        HBond_Donors:                   0
##########                         Heavy_Atoms:                  29
##########                          Grid_Score:          -21.871864
##########                     Grid_vdw_energy:          -23.246702
##########                      Grid_es_energy:            1.374838
##########           Internal_energy_repulsive:           30.367344

@<TRIPOS>MOLECULE
ZINC000130059363
 56 60 1 0 0
SMALL
USER_CHARGES


@<TRIPOS>ATOM
      1 C1         -6.5181    6.0937   57.9209 C.3     1  ZINC000130059363   -0.1200
      2 C2         -6.9162    4.6671   58.1991 C.ar    1  ZINC000130059363    0.1900
      3 N3         -7.9962    4.4192   58.9070 N.ar    1  ZINC000130059363   -0.4800
      4 C4         -8.3859    3.1787   59.1769 C.ar    1  ZINC000130059363    0.2000
      5 C5         -9.6120    2.9554   59.9793 C.ar    1  ZINC000130059363   -0.0600
      6 C6        -10.0280    1.6579   60.2753 C.ar    1  ZINC000130059363   -0.1000
      7 C7        -11.1700    1.4561   61.0231 C.ar    1  ZINC000130059363   -0.1200
      8 C8        -11.9020    2.5381   61.4785 C.ar    1  ZINC000130059363   -0.1000
      9 C9        -11.4944    3.8277   61.1876 C.ar    1  ZINC000130059363   -0.1300
     10 C10       -10.3506    4.0419   60.4459 C.ar    1  ZINC000130059363   -0.0700
     11 C11        -7.6567    2.0833   58.7148 C.ar    1  ZINC000130059363   -0.1800
     12 C12        -6.5158    2.2998   57.9676 C.ar    1  ZINC000130059363   -0.0400
     13 C13        -6.1372    3.6219   57.6975 C.ar    1  ZINC000130059363   -0.1900
     14 C14        -4.9254    3.9062   56.9023 C.2     1  ZINC000130059363    0.5700
     15 O15        -3.9223    4.3206   57.4500 O.2     1  ZINC000130059363   -0.5200
     16 N16        -4.9317    3.7061   55.5694 N.am    1  ZINC000130059363   -0.6000
     17 C17        -6.1373    3.2114   54.8895 C.3     1  ZINC000130059363    0.1000
     18 C18        -6.4951    4.1892   53.7662 C.3     1  ZINC000130059363   -0.1500
     19 C19        -5.2928    4.3867   52.8498 C.3     1  ZINC000130059363    0.1500
     20 H20        -5.5652    5.1136   52.0846 H       1  ZINC000130059363    0.0700
     21 C21        -4.1000    4.9394   53.6275 C.3     1  ZINC000130059363   -0.1100
     22 H22        -4.3357    5.9281   54.0211 H       1  ZINC000130059363    0.1000
     23 C23        -2.9045    5.0255   52.6654 C.3     1  ZINC000130059363   -0.1200
     24 C24        -2.4827    3.6005   52.2982 C.3     1  ZINC000130059363   -0.1400
     25 C25        -3.6821    2.7925   51.8944 C.2     1  ZINC000130059363    0.5200
     26 O26        -3.5001    1.7612   51.2829 O.2     1  ZINC000130059363   -0.5400
     27 N27        -4.9287    3.1451   52.1856 N.am    1  ZINC000130059363   -0.5700
     28 C28        -6.0136    2.2438   51.7896 C.3     1  ZINC000130059363    0.0700
     29 C29        -7.1831    2.8464   51.0087 C.3     1  ZINC000130059363   -0.1800
     30 C30        -6.1733    1.9432   50.2980 C.3     1  ZINC000130059363   -0.1600
     31 C31        -3.7365    3.9832   54.7633 C.3     1  ZINC000130059363    0.1100
     32 H32        -6.9031    6.3948   56.9467 H       1  ZINC000130059363    0.0800
     33 H33        -6.9324    6.7433   58.6919 H       1  ZINC000130059363    0.0800
     34 H34        -5.4312    6.1746   57.9230 H       1  ZINC000130059363    0.1000
     35 H35        -9.4577    0.8124   59.9197 H       1  ZINC000130059363    0.1300
     36 H36       -11.4932    0.4517   61.2530 H       1  ZINC000130059363    0.1300
     37 H37       -12.7954    2.3755   62.0631 H       1  ZINC000130059363    0.1300
     38 H38       -12.0701    4.6685   61.5455 H       1  ZINC000130059363    0.1300
     39 H39       -10.0333    5.0491   60.2193 H       1  ZINC000130059363    0.1400
     40 H40        -7.9803    1.0776   58.9390 H       1  ZINC000130059363    0.1400
     41 H41        -5.9316    1.4704   57.5971 H       1  ZINC000130059363    0.1400
     42 H42        -5.9427    2.2247   54.4690 H       1  ZINC000130059363    0.0700
     43 H43        -6.9614    3.1518   55.6004 H       1  ZINC000130059363    0.0900
     44 H44        -7.3285    3.7886   53.1890 H       1  ZINC000130059363    0.0900
     45 H45        -6.7827    5.1476   54.1982 H       1  ZINC000130059363    0.0800
     46 H46        -3.1952    5.5664   51.7650 H       1  ZINC000130059363    0.0800
     47 H47        -2.0764    5.5399   53.1530 H       1  ZINC000130059363    0.0900
     48 H48        -1.7753    3.6355   51.4697 H       1  ZINC000130059363    0.1000
     49 H49        -2.0048    3.1323   53.1586 H       1  ZINC000130059363    0.1000
     50 H50        -6.2373    1.4406   52.4916 H       1  ZINC000130059363    0.1100
     51 H51        -8.1767    2.4397   51.1970 H       1  ZINC000130059363    0.1100
     52 H52        -7.1454    3.9135   50.7896 H       1  ZINC000130059363    0.1000
     53 H53        -5.4711    2.4160   49.6113 H       1  ZINC000130059363    0.1000
     54 H54        -6.5024    0.9423   50.0187 H       1  ZINC000130059363    0.1000
     55 H55        -2.9697    4.4376   55.3906 H       1  ZINC000130059363    0.1000
     56 H56        -3.3609    3.0487   54.3464 H       1  ZINC000130059363    0.0700
@<TRIPOS>BOND
     1     1     2    1
     2     1    32    1
     3     1    33    1
     4     1    34    1
     5     2    13   ar
     6     2     3   ar
     7     3     4   ar
     8     4     5    1
     9     4    11   ar
    10     5    10   ar
    11     5     6   ar
    12     6     7   ar
    13     6    35    1
    14     7     8   ar
    15     7    36    1
    16     8     9   ar
    17     8    37    1
    18     9    10   ar
    19     9    38    1
    20    10    39    1
    21    11    12   ar
    22    11    40    1
    23    12    13   ar
    24    12    41    1
    25    13    14    1
    26    14    15    2
    27    14    16   am
    28    16    31    1
    29    16    17    1
    30    17    18    1
    31    17    42    1
    32    17    43    1
    33    18    19    1
    34    18    44    1
    35    18    45    1
    36    19    20    1
    37    19    27    1
    38    19    21    1
    39    21    22    1
    40    21    23    1
    41    21    31    1
    42    23    24    1
    43    23    46    1
    44    23    47    1
    45    24    25    1
    46    24    48    1
    47    24    49    1
    48    25    26    2
    49    25    27   am
    50    27    28    1
    51    28    30    1
    52    28    29    1
    53    28    50    1
    54    29    30    1
    55    29    51    1
    56    29    52    1
    57    30    53    1
    58    30    54    1
    59    31    55    1
    60    31    56    1
@<TRIPOS>SUBSTRUCTURE
     1 ZINC000130059363        1 TEMP              0 ****  ****    0 ROOT


##########                                Name:    ZINC001010141213
##########                DOCK_Rotatable_Bonds:                   4
##########                         Heavy_Atoms:                  24
##########                    Molecular_Weight:             330.346
##########                DOCK_Rotatable_Bonds:                   4
##########                       Formal_Charge:          -0.0100003
##########                     HBond_Acceptors:                   9
##########                        HBond_Donors:                   1
##########                         Heavy_Atoms:                  24
##########                          Grid_Score:          -21.269644
##########                     Grid_vdw_energy:          -20.485947
##########                      Grid_es_energy:           -0.783696
##########           Internal_energy_repulsive:           16.259567

@<TRIPOS>MOLECULE
ZINC001010141213
 42 44 1 0 0
SMALL
USER_CHARGES


@<TRIPOS>ATOM
      1 C1        -12.3979   -1.6949   59.4626 C.3     1  ZINC001010141213   -0.0800
      2 C2        -13.3358   -1.6791   58.2832 C.2     1  ZINC001010141213   -0.1500
      3 C3        -13.3360   -0.7892   57.2232 C.2     1  ZINC001010141213   -0.0400
      4 C4        -12.4154    0.3404   57.0181 C.2     1  ZINC001010141213    0.6000
      5 O5        -12.5829    1.3799   57.6270 O.2     1  ZINC001010141213   -0.5100
      6 N6        -11.3864    0.2230   56.1555 N.am    1  ZINC001010141213   -0.6100
      7 C7        -11.1752   -1.0248   55.4085 C.3     1  ZINC001010141213    0.0900
      8 C8        -11.1330   -0.6980   53.9106 C.3     1  ZINC001010141213    0.0700
      9 N9        -10.2023    0.4197   53.6999 N.am    1  ZINC001010141213   -0.6000
     10 C10        -9.1740    0.3027   52.8366 C.2     1  ZINC001010141213    0.5900
     11 O11        -9.0098   -0.7342   52.2240 O.2     1  ZINC001010141213   -0.5200
     12 C12        -8.2454    1.4358   52.6348 C.2     1  ZINC001010141213    0.0300
     13 N13        -8.6572    2.5171   52.0120 N.2     1  ZINC001010141213   -0.1800
     14 N14        -7.8901    3.5270   51.8120 N.am    1  ZINC001010141213   -0.4400
     15 C15        -6.6108    3.5398   52.2302 C.2     1  ZINC001010141213    0.4800
     16 O16        -5.9074    4.5151   52.0251 O.2     1  ZINC001010141213   -0.5100
     17 C17        -6.0882    2.4162   52.9086 C.2     1  ZINC001010141213   -0.1800
     18 C18        -6.9171    1.3543   53.1181 C.2     1  ZINC001010141213   -0.0400
     19 C19       -10.4134    1.6676   54.4470 C.3     1  ZINC001010141213    0.1000
     20 C20       -10.4590    1.3427   55.9407 C.3     1  ZINC001010141213    0.1000
     21 N21       -14.3620   -1.1696   56.4055 N.pl3   1  ZINC001010141213   -0.2700
     22 C22       -14.7342   -0.5062   55.1535 C.3     1  ZINC001010141213    0.0900
     23 N23       -14.9503   -2.1980   56.9016 N.2     1  ZINC001010141213   -0.2800
     24 C24       -14.3858   -2.5630   58.0243 C.2     1  ZINC001010141213    0.0100
     25 H25       -11.5294   -2.3102   59.2280 H       1  ZINC001010141213    0.0700
     26 H26       -12.0737   -0.6778   59.6827 H       1  ZINC001010141213    0.0600
     27 H27       -12.9122   -2.1080   60.3303 H       1  ZINC001010141213    0.0700
     28 H28       -10.2307   -1.4770   55.7110 H       1  ZINC001010141213    0.0800
     29 H29       -11.9949   -1.7146   55.6093 H       1  ZINC001010141213    0.1000
     30 H30       -10.7885   -1.5705   53.3554 H       1  ZINC001010141213    0.1400
     31 H31       -12.1286   -0.4143   53.5697 H       1  ZINC001010141213    0.0800
     32 H32        -8.2421    4.3019   51.3465 H       1  ZINC001010141213    0.4500
     33 H33        -5.0653    2.4008   53.2545 H       1  ZINC001010141213    0.1700
     34 H34        -6.5674    0.4711   53.6319 H       1  ZINC001010141213    0.1700
     35 H35        -9.5938    2.3574   54.2460 H       1  ZINC001010141213    0.1100
     36 H36       -11.3580    2.1198   54.1444 H       1  ZINC001010141213    0.0800
     37 H37       -10.8037    2.2160   56.4946 H       1  ZINC001010141213    0.1100
     38 H38        -9.4644    1.0580   56.2836 H       1  ZINC001010141213    0.0800
     39 H39       -14.2540   -1.0134   54.3167 H       1  ZINC001010141213    0.0900
     40 H40       -15.8165   -0.5453   55.0294 H       1  ZINC001010141213    0.1000
     41 H41       -14.4093    0.5339   55.1828 H       1  ZINC001010141213    0.0900
     42 H42       -14.6833   -3.3958   58.6443 H       1  ZINC001010141213    0.1900
@<TRIPOS>BOND
     1     1     2    1
     2     1    25    1
     3     1    26    1
     4     1    27    1
     5     2    24    1
     6     2     3    2
     7     3     4    1
     8     3    21    1
     9     4     5    2
    10     4     6   am
    11     6    20    1
    12     6     7    1
    13     7     8    1
    14     7    28    1
    15     7    29    1
    16     8     9    1
    17     8    30    1
    18     8    31    1
    19     9    10   am
    20     9    19    1
    21    10    11    2
    22    10    12    1
    23    12    18    1
    24    12    13    2
    25    13    14    1
    26    14    15   am
    27    14    32    1
    28    15    16    2
    29    15    17    1
    30    17    18    2
    31    17    33    1
    32    18    34    1
    33    19    20    1
    34    19    35    1
    35    19    36    1
    36    20    37    1
    37    20    38    1
    38    21    22    1
    39    21    23    1
    40    22    39    1
    41    22    40    1
    42    22    41    1
    43    23    24    2
    44    24    42    1
@<TRIPOS>SUBSTRUCTURE
     1 ZINC001010141213        1 TEMP              0 ****  ****    0 ROOT


##########                                Name:    ZINC000569288350
##########                DOCK_Rotatable_Bonds:                   3
##########                         Heavy_Atoms:                  19
##########                    Molecular_Weight:             393.559
##########                DOCK_Rotatable_Bonds:                   3
##########                       Formal_Charge:           0.0299999
##########                     HBond_Acceptors:                   5
##########                        HBond_Donors:                   1
##########                         Heavy_Atoms:                  19
##########                          Grid_Score:          -20.961765
##########                     Grid_vdw_energy:          -20.126305
##########                      Grid_es_energy:           -0.835462
##########           Internal_energy_repulsive:            6.335565

@<TRIPOS>MOLECULE
ZINC000569288350
 26 27 1 0 0
SMALL
USER_CHARGES


@<TRIPOS>ATOM
      1 O1         -7.2048    3.9363   52.8762 O.2     1  ZINC000569288350   -0.4800
      2 C2         -6.4050    3.1491   53.3443 C.2     1  ZINC000569288350    0.5700
      3 N3         -6.8044    1.9102   53.6936 N.am    1  ZINC000569288350   -0.6600
      4 C4         -8.1405    1.5317   53.5227 C.ar    1  ZINC000569288350    0.1800
      5 C5         -9.1581    2.3130   54.0537 C.ar    1  ZINC000569288350   -0.1200
      6 C6        -10.4769    1.9379   53.8841 C.ar    1  ZINC000569288350   -0.0600
      7 C7        -10.7857    0.7851   53.1867 C.ar    1  ZINC000569288350   -0.1500
      8 C8         -9.7743    0.0020   52.6550 C.ar    1  ZINC000569288350    0.1300
      9 F9        -10.0793   -1.1239   51.9734 F       1  ZINC000569288350   -0.1200
     10 C10        -8.4517    0.3762   52.8165 C.ar    1  ZINC000569288350   -0.1000
     11 Cl11       -7.1832   -0.6039   52.1501 Cl      1  ZINC000569288350   -0.0400
     12 C12        -4.9953    3.5485   53.5246 C.ar    1  ZINC000569288350   -0.1400
     13 C13        -4.5785    4.1335   54.7246 C.ar    1  ZINC000569288350    0.1400
     14 F14        -5.4648    4.3349   55.7241 F       1  ZINC000569288350   -0.1200
     15 C15        -3.2559    4.5046   54.8849 C.ar    1  ZINC000569288350   -0.1300
     16 C16        -2.3485    4.2987   53.8626 C.ar    1  ZINC000569288350   -0.0600
     17 C17        -2.7550    3.7206   52.6724 C.ar    1  ZINC000569288350   -0.0900
     18 C18        -4.0692    3.3388   52.4994 C.ar    1  ZINC000569288350   -0.0500
     19 I19        -4.6796    2.4642   50.6961 I       1  ZINC000569288350    0.0000
     20 H20        -6.1655    1.2809   54.0633 H       1  ZINC000569288350    0.4200
     21 H21        -8.9187    3.2138   54.5995 H       1  ZINC000569288350    0.1600
     22 H22       -11.2678    2.5462   54.2974 H       1  ZINC000569288350    0.1500
     23 H23       -11.8176    0.4941   53.0565 H       1  ZINC000569288350    0.1500
     24 H24        -2.9314    4.9565   55.8106 H       1  ZINC000569288350    0.1500
     25 H25        -1.3170    4.5907   53.9931 H       1  ZINC000569288350    0.1500
     26 H26        -2.0399    3.5635   51.8784 H       1  ZINC000569288350    0.1500
@<TRIPOS>BOND
     1     1     2    2
     2     2     3   am
     3     2    12    1
     4     3     4    1
     5     3    20    1
     6     4    10   ar
     7     4     5   ar
     8     5     6   ar
     9     5    21    1
    10     6     7   ar
    11     6    22    1
    12     7     8   ar
    13     7    23    1
    14     8     9    1
    15     8    10   ar
    16    10    11    1
    17    12    18   ar
    18    12    13   ar
    19    13    14    1
    20    13    15   ar
    21    15    16   ar
    22    15    24    1
    23    16    17   ar
    24    16    25    1
    25    17    18   ar
    26    17    26    1
    27    18    19    1
@<TRIPOS>SUBSTRUCTURE
     1 ZINC000569288350        1 TEMP              0 ****  ****    0 ROOT


##########                                Name:    ZINC000541315701
##########                DOCK_Rotatable_Bonds:                   4
##########                         Heavy_Atoms:                  25
##########                    Molecular_Weight:             422.709
##########                DOCK_Rotatable_Bonds:                   4
##########                       Formal_Charge:           0.0300003
##########                     HBond_Acceptors:                   6
##########                        HBond_Donors:                   0
##########                         Heavy_Atoms:                  25
##########                          Grid_Score:          -20.897291
##########                     Grid_vdw_energy:          -19.696529
##########                      Grid_es_energy:           -1.200762
##########           Internal_energy_repulsive:           16.237726

@<TRIPOS>MOLECULE
ZINC000541315701
 42 44 1 0 0
SMALL
USER_CHARGES


@<TRIPOS>ATOM
      1 C1        -11.6039    0.6963   61.8976 C.3     1  ZINC000541315701    0.0800
      2 N2        -11.0756    0.4755   60.5491 N.am    1  ZINC000541315701   -0.5700
      3 C3        -11.8502   -0.0986   59.6074 C.2     1  ZINC000541315701    0.5400
      4 O4        -12.9846   -0.4324   59.8763 O.2     1  ZINC000541315701   -0.5000
      5 C5        -11.3065   -0.3258   58.2204 C.3     1  ZINC000541315701   -0.1100
      6 H6        -10.5036    0.3772   57.9984 H       1  ZINC000541315701    0.1300
      7 C7        -10.8280   -1.7857   58.0459 C.3     1  ZINC000541315701   -0.1500
      8 C8        -12.0264   -2.5017   57.4629 C.2     1  ZINC000541315701    0.5200
      9 O9        -12.1699   -3.7057   57.4342 O.2     1  ZINC000541315701   -0.5200
     10 N10       -12.9091   -1.6094   56.9819 N.am    1  ZINC000541315701   -0.6100
     11 C11       -14.1853   -1.9642   56.3561 C.3     1  ZINC000541315701    0.0900
     12 C12       -12.4300   -0.2332   57.1642 C.3     1  ZINC000541315701    0.1900
     13 H13       -13.2378    0.4024   57.5269 H       1  ZINC000541315701    0.1100
     14 C14       -11.8860    0.3059   55.8664 C.ar    1  ZINC000541315701   -0.0900
     15 C15       -11.2565   -0.5429   54.9754 C.ar    1  ZINC000541315701   -0.1000
     16 C16       -10.7575   -0.0493   53.7842 C.ar    1  ZINC000541315701   -0.1000
     17 C17       -10.8875    1.2934   53.4840 C.ar    1  ZINC000541315701   -0.1000
     18 C18       -11.5176    2.1436   54.3754 C.ar    1  ZINC000541315701   -0.0300
     19 Cl19      -11.6818    3.8302   53.9987 Cl      1  ZINC000541315701   -0.0600
     20 C20       -12.0217    1.6480   55.5645 C.ar    1  ZINC000541315701   -0.0900
     21 C21        -9.7711    0.8593   60.2400 C.ar    1  ZINC000541315701    0.3800
     22 N22        -8.8192   -0.0566   60.1624 N.ar    1  ZINC000541315701   -0.4700
     23 C23        -7.5725    0.2635   59.8723 C.ar    1  ZINC000541315701    0.1300
     24 C24        -7.2144    1.5761   59.6378 C.ar    1  ZINC000541315701   -0.1600
     25 C25        -8.1830    2.5682   59.7093 C.ar    1  ZINC000541315701   -0.0400
     26 C26        -9.4832    2.2009   60.0105 C.ar    1  ZINC000541315701   -0.1300
     27 Br27      -10.8467    3.5064   60.1216 Br      1  ZINC000541315701   -0.0200
     28 H28       -12.2882   -0.1117   62.1564 H       1  ZINC000541315701    0.0900
     29 H29       -10.7805    0.7179   62.6115 H       1  ZINC000541315701    0.0800
     30 H30       -12.1362    1.6471   61.9280 H       1  ZINC000541315701    0.0700
     31 H31        -9.9844   -1.8309   57.3570 H       1  ZINC000541315701    0.1200
     32 H32       -10.5579   -2.2165   59.0101 H       1  ZINC000541315701    0.1100
     33 H33       -14.2960   -3.0485   56.3460 H       1  ZINC000541315701    0.0900
     34 H34       -15.0038   -1.5207   56.9232 H       1  ZINC000541315701    0.0700
     35 H35       -14.2057   -1.5872   55.3335 H       1  ZINC000541315701    0.0600
     36 H36       -11.1541   -1.5922   55.2100 H       1  ZINC000541315701    0.1300
     37 H37       -10.2657   -0.7130   53.0884 H       1  ZINC000541315701    0.1400
     38 H38       -10.4971    1.6790   52.5537 H       1  ZINC000541315701    0.1400
     39 H39       -12.5136    2.3111   56.2607 H       1  ZINC000541315701    0.1400
     40 H40        -6.8221   -0.5115   59.8180 H       1  ZINC000541315701    0.1700
     41 H41        -6.1912    1.8286   59.4013 H       1  ZINC000541315701    0.1500
     42 H42        -7.9286    3.6024   59.5300 H       1  ZINC000541315701    0.1500
@<TRIPOS>BOND
     1     1     2    1
     2     1    28    1
     3     1    29    1
     4     1    30    1
     5     2     3   am
     6     2    21    1
     7     3     4    2
     8     3     5    1
     9     5     6    1
    10     5    12    1
    11     5     7    1
    12     7     8    1
    13     7    31    1
    14     7    32    1
    15     8     9    2
    16     8    10   am
    17    10    11    1
    18    10    12    1
    19    11    33    1
    20    11    34    1
    21    11    35    1
    22    12    13    1
    23    12    14    1
    24    14    20   ar
    25    14    15   ar
    26    15    16   ar
    27    15    36    1
    28    16    17   ar
    29    16    37    1
    30    17    18   ar
    31    17    38    1
    32    18    19    1
    33    18    20   ar
    34    20    39    1
    35    21    26   ar
    36    21    22   ar
    37    22    23   ar
    38    23    24   ar
    39    23    40    1
    40    24    25   ar
    41    24    41    1
    42    25    26   ar
    43    25    42    1
    44    26    27    1
@<TRIPOS>SUBSTRUCTURE
     1 ZINC000541315701        1 TEMP              0 ****  ****    0 ROOT


##########                                Name:    ZINC001023407238
##########                DOCK_Rotatable_Bonds:                   7
##########                         Heavy_Atoms:                  25
##########                    Molecular_Weight:             349.387
##########                DOCK_Rotatable_Bonds:                   7
##########                       Formal_Charge:          -0.0300008
##########                     HBond_Acceptors:                   8
##########                        HBond_Donors:                   2
##########                         Heavy_Atoms:                  25
##########                          Grid_Score:          -20.462460
##########                     Grid_vdw_energy:          -20.130543
##########                      Grid_es_energy:           -0.331916
##########           Internal_energy_repulsive:           26.959034

@<TRIPOS>MOLECULE
ZINC001023407238
 48 50 1 0 0
SMALL
USER_CHARGES


@<TRIPOS>ATOM
      1 C1         -2.4302    3.1844   55.9557 C.3     1  ZINC001023407238   -0.0900
      2 C2         -3.1785    4.3252   55.3157 C.2     1  ZINC001023407238   -0.1100
      3 C3         -3.5796    4.4057   53.9992 C.2     1  ZINC001023407238   -0.0500
      4 C4         -3.3558    3.3938   52.9612 C.2     1  ZINC001023407238    0.6100
      5 O5         -2.2214    3.0890   52.6432 O.2     1  ZINC001023407238   -0.5100
      6 N6         -4.4065    2.8017   52.3596 N.am    1  ZINC001023407238   -0.6100
      7 C7         -4.3264    1.7766   51.3088 C.3     1  ZINC001023407238    0.0800
      8 C8         -5.7725    1.3773   50.9470 C.3     1  ZINC001023407238    0.0900
      9 H9         -6.1184    1.9307   50.0740 H       1  ZINC001023407238    0.0800
     10 O10        -5.8667   -0.0305   50.7208 O.3     1  ZINC001023407238   -0.5500
     11 C11        -6.5732    1.7889   52.2106 C.3     1  ZINC001023407238    0.1400
     12 H12        -6.5102    1.0201   52.9807 H       1  ZINC001023407238    0.1200
     13 N13        -7.9695    2.0797   51.8759 N.am    1  ZINC001023407238   -0.7200
     14 C14        -8.7900    2.6060   52.8066 C.2     1  ZINC001023407238    0.5200
     15 O15        -8.3728    2.8375   53.9217 O.2     1  ZINC001023407238   -0.5300
     16 C16       -10.2259    2.9069   52.4618 C.3     1  ZINC001023407238   -0.1300
     17 C17       -10.3334    4.3368   51.9285 C.3     1  ZINC001023407238   -0.1100
     18 H18       -11.3729    4.5983   51.7303 H       1  ZINC001023407238    0.1100
     19 C19        -9.6908    5.3412   52.9121 C.3     1  ZINC001023407238    0.0600
     20 O20        -9.0982    6.3613   52.0550 O.3     1  ZINC001023407238   -0.3500
     21 C21        -8.7168    5.8149   50.8917 C.2     1  ZINC001023407238    0.4800
     22 O22        -7.8980    6.2861   50.1383 O.2     1  ZINC001023407238   -0.4600
     23 C23        -9.4692    4.5177   50.6607 C.3     1  ZINC001023407238   -0.1800
     24 C24        -5.8266    3.0703   52.6507 C.3     1  ZINC001023407238    0.1000
     25 N25        -4.2290    5.6086   53.8363 N.pl3   1  ZINC001023407238   -0.4200
     26 C26        -4.8177    6.0995   52.5879 C.3     1  ZINC001023407238    0.0700
     27 C27        -4.2328    6.2630   55.0231 C.2     1  ZINC001023407238    0.0100
     28 C28        -3.6021    5.4989   55.9468 C.2     1  ZINC001023407238   -0.2000
     29 H29        -3.1417    2.4588   56.3499 H       1  ZINC001023407238    0.0600
     30 H30        -1.7954    2.7033   55.2115 H       1  ZINC001023407238    0.0600
     31 H31        -1.8121    3.5657   56.7685 H       1  ZINC001023407238    0.0700
     32 H32        -3.8237    2.1835   50.4315 H       1  ZINC001023407238    0.0800
     33 H33        -3.7836    0.9071   51.6798 H       1  ZINC001023407238    0.0800
     34 H34        -5.0349   -0.4417   50.4483 H       1  ZINC001023407238    0.3900
     35 H35        -8.3035    1.8935   50.9845 H       1  ZINC001023407238    0.4100
     36 H36       -10.5706    2.2080   51.6997 H       1  ZINC001023407238    0.1000
     37 H37       -10.8430    2.8045   53.3544 H       1  ZINC001023407238    0.1100
     38 H38       -10.4510    5.7810   53.5577 H       1  ZINC001023407238    0.1200
     39 H39        -8.9213    4.8508   53.5082 H       1  ZINC001023407238    0.0800
     40 H40        -8.7708    3.6871   50.5584 H       1  ZINC001023407238    0.1100
     41 H41       -10.0984    4.5968   49.7741 H       1  ZINC001023407238    0.1200
     42 H42        -5.9721    3.2470   53.7165 H       1  ZINC001023407238    0.0900
     43 H43        -6.1713    3.9277   52.0726 H       1  ZINC001023407238    0.0800
     44 H44        -5.8777    5.8467   52.5621 H       1  ZINC001023407238    0.0800
     45 H45        -4.7009    7.1818   52.5321 H       1  ZINC001023407238    0.0900
     46 H46        -4.3128    5.6353   51.7408 H       1  ZINC001023407238    0.0800
     47 H47        -4.6705    7.2335   55.2038 H       1  ZINC001023407238    0.1700
     48 H48        -3.4476    5.7541   56.9848 H       1  ZINC001023407238    0.1400
@<TRIPOS>BOND
     1     1     2    1
     2     1    29    1
     3     1    30    1
     4     1    31    1
     5     2    28    1
     6     2     3    2
     7     3     4    1
     8     3    25    1
     9     4     5    2
    10     4     6   am
    11     6    24    1
    12     6     7    1
    13     7     8    1
    14     7    32    1
    15     7    33    1
    16     8     9    1
    17     8    10    1
    18     8    11    1
    19    10    34    1
    20    11    12    1
    21    11    13    1
    22    11    24    1
    23    13    14   am
    24    13    35    1
    25    14    15    2
    26    14    16    1
    27    16    17    1
    28    16    36    1
    29    16    37    1
    30    17    18    1
    31    17    23    1
    32    17    19    1
    33    19    20    1
    34    19    38    1
    35    19    39    1
    36    20    21    1
    37    21    22    2
    38    21    23    1
    39    23    40    1
    40    23    41    1
    41    24    42    1
    42    24    43    1
    43    25    26    1
    44    25    27    1
    45    26    44    1
    46    26    45    1
    47    26    46    1
    48    27    28    2
    49    27    47    1
    50    28    48    1
@<TRIPOS>SUBSTRUCTURE
     1 ZINC001023407238        1 TEMP              0 ****  ****    0 ROOT


##########                                Name:    ZINC000653668607
##########                DOCK_Rotatable_Bonds:                   5
##########                         Heavy_Atoms:                  28
##########                    Molecular_Weight:             379.459
##########                DOCK_Rotatable_Bonds:                   5
##########                       Formal_Charge:          0.00999918
##########                     HBond_Acceptors:                   6
##########                        HBond_Donors:                   2
##########                         Heavy_Atoms:                  28
##########                          Grid_Score:          -19.342113
##########                     Grid_vdw_energy:          -19.210869
##########                      Grid_es_energy:           -0.131245
##########           Internal_energy_repulsive:           11.072278

@<TRIPOS>MOLECULE
ZINC000653668607
 53 56 1 0 0
SMALL
USER_CHARGES


@<TRIPOS>ATOM
      1 C1        -14.7221    4.8547   56.9578 C.3     1  ZINC000653668607    0.0300
      2 O2        -13.3092    4.6942   56.8168 O.3     1  ZINC000653668607   -0.3200
      3 C3        -12.8118    4.6914   55.5521 C.ar    1  ZINC000653668607    0.1300
      4 C4        -12.0373    5.7520   55.1052 C.ar    1  ZINC000653668607   -0.2000
      5 C5        -11.5351    5.7379   53.8212 C.ar    1  ZINC000653668607   -0.0800
      6 C6        -11.7972    4.6716   52.9704 C.ar    1  ZINC000653668607   -0.1000
      7 C7        -11.2035    4.7176   51.5865 C.3     1  ZINC000653668607   -0.0800
      8 C8        -11.9152    3.7306   50.6635 C.3     1  ZINC000653668607   -0.1200
      9 C9        -11.9444    2.3603   51.3508 C.3     1  ZINC000653668607   -0.1100
     10 C10       -12.9020    2.4371   52.5381 C.3     1  ZINC000653668607   -0.0600
     11 H11       -13.9232    2.5364   52.1704 H       1  ZINC000653668607    0.1000
     12 C12       -12.7874    1.1736   53.3514 C.2     1  ZINC000653668607    0.5200
     13 O13       -13.4892    0.2191   53.0911 O.2     1  ZINC000653668607   -0.5100
     14 N14       -11.9053    1.1041   54.3680 N.am    1  ZINC000653668607   -0.6700
     15 C15       -11.7990   -0.0690   55.1231 C.ar    1  ZINC000653668607    0.1500
     16 C16       -10.6929   -0.8954   54.9716 C.ar    1  ZINC000653668607   -0.1100
     17 C17       -10.5872   -2.0542   55.7170 C.ar    1  ZINC000653668607   -0.0900
     18 C18       -11.5804   -2.3945   56.6147 C.ar    1  ZINC000653668607   -0.1200
     19 C19       -12.6895   -1.5724   56.7705 C.ar    1  ZINC000653668607    0.1700
     20 N20       -13.6956   -1.9181   57.6798 N.am    1  ZINC000653668607   -0.5800
     21 C21       -15.0284   -2.2583   57.1793 C.3     1  ZINC000653668607    0.1100
     22 C22       -15.6924   -3.2439   58.1467 C.3     1  ZINC000653668607   -0.1500
     23 C23       -15.6986   -2.6230   59.5477 C.3     1  ZINC000653668607    0.1100
     24 N24       -14.3294   -2.2630   59.9196 N.am    1  ZINC000653668607   -0.7400
     25 C25       -13.4174   -1.9364   58.9918 C.2     1  ZINC000653668607    0.7100
     26 O26       -12.2968   -1.6351   59.3553 O.2     1  ZINC000653668607   -0.5800
     27 C27       -12.7956   -0.4052   56.0283 C.ar    1  ZINC000653668607   -0.1300
     28 C28       -12.5707    3.6200   53.4101 C.ar    1  ZINC000653668607   -0.0300
     29 C29       -13.0707    3.6274   54.7048 C.ar    1  ZINC000653668607   -0.1500
     30 H30       -15.0250    5.8067   56.5219 H       1  ZINC000653668607    0.0600
     31 H31       -15.2334    4.0406   56.4440 H       1  ZINC000653668607    0.0600
     32 H32       -14.9858    4.8391   58.0154 H       1  ZINC000653668607    0.1000
     33 H33       -11.8291    6.5852   55.7598 H       1  ZINC000653668607    0.1300
     34 H34       -10.9323    6.5640   53.4735 H       1  ZINC000653668607    0.1300
     35 H35       -11.3077    5.7252   51.1841 H       1  ZINC000653668607    0.0800
     36 H36       -10.1456    4.4603   51.6406 H       1  ZINC000653668607    0.0800
     37 H37       -12.9343    4.0703   50.4787 H       1  ZINC000653668607    0.0700
     38 H38       -11.3756    3.6564   49.7194 H       1  ZINC000653668607    0.0800
     39 H39       -12.2922    1.6041   50.6469 H       1  ZINC000653668607    0.0700
     40 H40       -10.9447    2.1040   51.7014 H       1  ZINC000653668607    0.0800
     41 H41       -11.3441    1.8674   54.5761 H       1  ZINC000653668607    0.4100
     42 H42        -9.9149   -0.6322   54.2703 H       1  ZINC000653668607    0.1400
     43 H43        -9.7263   -2.6953   55.5972 H       1  ZINC000653668607    0.1300
     44 H44       -11.4949   -3.3008   57.1958 H       1  ZINC000653668607    0.1200
     45 H45       -15.6327   -1.3539   57.1088 H       1  ZINC000653668607    0.0700
     46 H46       -14.9415   -2.7172   56.1944 H       1  ZINC000653668607    0.0900
     47 H47       -16.7164   -3.4368   57.8272 H       1  ZINC000653668607    0.1000
     48 H48       -15.1291   -4.1770   58.1624 H       1  ZINC000653668607    0.0800
     49 H49       -16.3229   -1.7294   59.5473 H       1  ZINC000653668607    0.0700
     50 H50       -16.0931   -3.3438   60.2639 H       1  ZINC000653668607    0.0900
     51 H51       -14.0753   -2.2645   60.8558 H       1  ZINC000653668607    0.4200
     52 H52       -13.6567    0.2356   56.1478 H       1  ZINC000653668607    0.1300
     53 H53       -13.6705    2.7992   55.0523 H       1  ZINC000653668607    0.1200
@<TRIPOS>BOND
     1     1     2    1
     2     1    30    1
     3     1    31    1
     4     1    32    1
     5     2     3    1
     6     3    29   ar
     7     3     4   ar
     8     4     5   ar
     9     4    33    1
    10     5     6   ar
    11     5    34    1
    12     6    28   ar
    13     6     7    1
    14     7     8    1
    15     7    35    1
    16     7    36    1
    17     8     9    1
    18     8    37    1
    19     8    38    1
    20     9    10    1
    21     9    39    1
    22     9    40    1
    23    10    11    1
    24    10    12    1
    25    10    28    1
    26    12    13    2
    27    12    14   am
    28    14    15    1
    29    14    41    1
    30    15    27   ar
    31    15    16   ar
    32    16    17   ar
    33    16    42    1
    34    17    18   ar
    35    17    43    1
    36    18    19   ar
    37    18    44    1
    38    19    20    1
    39    19    27   ar
    40    20    25   am
    41    20    21    1
    42    21    22    1
    43    21    45    1
    44    21    46    1
    45    22    23    1
    46    22    47    1
    47    22    48    1
    48    23    24    1
    49    23    49    1
    50    23    50    1
    51    24    25   am
    52    24    51    1
    53    25    26    2
    54    27    52    1
    55    28    29   ar
    56    29    53    1
@<TRIPOS>SUBSTRUCTURE
     1 ZINC000653668607        1 TEMP              0 ****  ****    0 ROOT


##########                                Name:     oleObject79.pdb
##########                DOCK_Rotatable_Bonds:                  12
##########                         Heavy_Atoms:                  53
##########                    Molecular_Weight:             725.376
##########                DOCK_Rotatable_Bonds:                  12
##########                       Formal_Charge:          0.00050066
##########                     HBond_Acceptors:                   8
##########                        HBond_Donors:                   4
##########                         Heavy_Atoms:                  53
##########                          Grid_Score:           -4.089297
##########                     Grid_vdw_energy:           -2.964143
##########                      Grid_es_energy:           -1.125154
##########           Internal_energy_repulsive:           45.093830

@<TRIPOS>MOLECULE
oleObject79.pdb
 102 108 1 0 0
SMALL
NO_CHARGES


@<TRIPOS>ATOM
      1 C          -4.6782    3.1845   57.4050 C.ar    1  UNL        -0.0620
      2 C          -4.8233    4.5521   57.6762 C.ar    1  UNL        -0.0590
      3 C          -6.0706    5.1892   57.5259 C.ar    1  UNL        -0.0456
      4 C          -7.1974    4.4385   57.0970 C.ar    1  UNL        -0.0185
      5 C          -7.0305    3.0624   56.8294 C.ar    1  UNL        -0.0565
      6 C          -5.7839    2.4388   56.9806 C.ar    1  UNL        -0.0619
      7 C          -8.5991    5.0679   56.9666 C.3     1  UNL         0.0931
      8 C          -9.4395    4.5506   55.7840 C.ar    1  UNL         0.0683
      9 C          -9.2189    5.0162   54.4624 C.ar    1  UNL        -0.0272
     10 C         -10.0223    4.5023   53.4270 C.ar    1  UNL        -0.0559
     11 C         -11.0065    3.5515   53.7325 C.ar    1  UNL        -0.0435
     12 C         -11.1556    3.1447   55.0662 C.ar    1  UNL         0.0272
     13 N         -10.3932    3.6314   56.0629 N.ar    1  UNL        -0.2587
     14 C          -8.1473    6.0496   54.1303 C.3     1  UNL        -0.0379
     15 N          -9.3112    5.0798   58.2750 N.am    1  UNL        -0.2918
     16 C          -9.6184    3.8817   58.9237 C.2     1  UNL         0.2179
     17 O          -9.6034    2.8300   58.3057 O.2     1  UNL        -0.2772
     18 C         -10.3615    3.9976   60.2819 C.3     1  UNL         0.0361
     19 C         -10.0080    2.8520   61.2732 C.3     1  UNL        -0.0412
     20 C         -10.6439    1.4836   60.9027 C.3     1  UNL        -0.0453
     21 C         -12.1780    1.5377   60.6363 C.3     1  UNL        -0.0139
     22 C         -12.6070    0.2064   59.9593 C.3     1  UNL         0.0171
     23 N         -14.0714    0.1526   59.7744 N.pl3   1  UNL        -0.3290
     24 C         -14.8385    0.2127   61.0340 C.3     1  UNL         0.0115
     25 C         -14.4840    1.4930   61.8267 C.3     1  UNL        -0.0368
     26 C         -12.9528    1.6678   61.9868 C.3     1  UNL        -0.0446
     27 C         -14.6456   -0.1629   58.5385 C.ar    1  UNL         0.0476
     28 C         -15.1312    0.8797   57.7253 C.ar    1  UNL        -0.0375
     29 C         -15.7418    0.6086   56.4912 C.ar    1  UNL        -0.0388
     30 C         -15.9020   -0.7139   56.0500 C.ar    1  UNL         0.0318
     31 C         -15.4041   -1.7603   56.8478 C.ar    1  UNL        -0.0202
     32 C         -14.7873   -1.4950   58.0823 C.ar    1  UNL         0.0636
     33 CL        -14.2784   -2.8797   59.0335 Cl      1  UNL        -0.0822
     34 N         -16.5134   -0.9447   54.8194 N.pl3   1  UNL        -0.3149
     35 C         -16.3179   -0.3651   53.5669 C.ar    1  UNL         0.0302
     36 C         -17.2629   -0.4806   52.5308 C.ar    1  UNL        -0.0402
     37 C         -17.0430    0.1399   51.2907 C.ar    1  UNL        -0.0525
     38 C         -15.8748    0.9035   51.0457 C.ar    1  UNL        -0.0182
     39 C         -14.9428    1.0247   52.1062 C.ar    1  UNL        -0.0525
     40 C         -15.1662    0.4078   53.3480 C.ar    1  UNL        -0.0402
     41 C         -15.6379    1.5671   49.7200 C.ar    1  UNL        -0.0177
     42 C         -16.5754    1.4527   48.6619 C.ar    1  UNL        -0.0439
     43 C         -16.3668    2.0678   47.4081 C.ar    1  UNL         0.0111
     44 C         -15.1874    2.8153   47.2106 C.ar    1  UNL        -0.0518
     45 C         -14.2456    2.9445   48.2415 C.ar    1  UNL        -0.0609
     46 C         -14.4682    2.3289   49.4816 C.ar    1  UNL        -0.0543
     47 C         -17.3112    1.9417   46.3843 C.2     1  UNL         0.1014
     48 N         -18.3932    1.2692   46.5292 N.3     1  UNL        -0.2892
     49 N         -17.1151    2.5229   45.1929 N.3     1  UNL        -0.2870
     50 C         -12.4932    2.7162   59.6631 C.3     1  UNL        -0.0453
     51 C         -11.9017    4.0686   60.1147 C.3     1  UNL        -0.0412
     52 C          -9.6488    6.3912   58.8707 C.3     1  UNL         0.0037
     53 C          -6.1601    6.6746   57.8597 C.3     1  UNL        -0.0394
     54 H          -3.7131    2.7024   57.5272 H       1  UNL         0.0623
     55 H          -3.9599    5.1192   58.0119 H       1  UNL         0.0626
     56 H          -7.8753    2.4659   56.5016 H       1  UNL         0.0627
     57 H          -5.6772    1.3784   56.7716 H       1  UNL         0.0623
     58 H          -8.4384    6.1173   56.7142 H       1  UNL         0.0626
     59 H          -9.8862    4.8329   52.4013 H       1  UNL         0.0627
     60 H         -11.6393    3.1374   52.9531 H       1  UNL         0.0639
     61 H         -11.9066    2.4070   55.3464 H       1  UNL         0.0840
     62 H          -8.3323    6.9954   54.6537 H       1  UNL         0.0280
     63 H          -8.1198    6.2723   53.0564 H       1  UNL         0.0280
     64 H          -7.1493    5.6933   54.4139 H       1  UNL         0.0280
     65 H         -10.0249    4.9345   60.7422 H       1  UNL         0.0401
     66 H         -10.3508    3.1379   62.2757 H       1  UNL         0.0275
     67 H          -8.9180    2.7445   61.3443 H       1  UNL         0.0275
     68 H         -10.4279    0.7599   61.6993 H       1  UNL         0.0273
     69 H         -10.1434    1.0889   60.0108 H       1  UNL         0.0273
     70 H         -12.2882   -0.6405   60.5808 H       1  UNL         0.0474
     71 H         -12.0977    0.1163   58.9908 H       1  UNL         0.0474
     72 H         -14.5917   -0.6646   61.6455 H       1  UNL         0.0468
     73 H         -15.9177    0.1833   60.8397 H       1  UNL         0.0468
     74 H         -14.9561    1.4534   62.8163 H       1  UNL         0.0283
     75 H         -14.9045    2.3688   61.3186 H       1  UNL         0.0283
     76 H         -12.5971    0.8915   62.6770 H       1  UNL         0.0273
     77 H         -12.7431    2.6265   62.4751 H       1  UNL         0.0273
     78 H         -15.0287    1.9120   58.0469 H       1  UNL         0.0644
     79 H         -16.1065    1.4314   55.8827 H       1  UNL         0.0643
     80 H         -15.4896   -2.7892   56.5125 H       1  UNL         0.0659
     81 H         -17.2110   -1.6776   54.8324 H       1  UNL         0.1528
     82 H         -18.1821   -1.0352   52.6845 H       1  UNL         0.0643
     83 H         -17.7867    0.0129   50.5103 H       1  UNL         0.0630
     84 H         -14.0446    1.6202   51.9773 H       1  UNL         0.0630
     85 H         -14.4354    0.5270   54.1430 H       1  UNL         0.0643
     86 H         -17.4846    0.8817   48.8231 H       1  UNL         0.0637
     87 H         -14.9997    3.3108   46.2620 H       1  UNL         0.0630
     88 H         -13.3403    3.5225   48.0787 H       1  UNL         0.0623
     89 H         -13.7145    2.4309   50.2561 H       1  UNL         0.0629
     90 H         -18.2522    0.2945   46.2554 H       1  UNL         0.1889
     91 H         -17.4498    3.4707   45.0291 H       1  UNL         0.1258
     92 H         -16.2086    2.4373   44.7368 H       1  UNL         0.1258
     93 H         -13.5728    2.8317   59.5159 H       1  UNL         0.0273
     94 H         -12.0846    2.4737   58.6754 H       1  UNL         0.0273
     95 H         -12.3563    4.3699   61.0659 H       1  UNL         0.0275
     96 H         -12.1838    4.8456   59.3967 H       1  UNL         0.0275
     97 H         -10.7102    6.4352   59.1387 H       1  UNL         0.0433
     98 H          -9.4461    7.2130   58.1745 H       1  UNL         0.0433
     99 H          -9.0476    6.5430   59.7757 H       1  UNL         0.0433
    100 H          -5.1777    7.0970   58.1049 H       1  UNL         0.0280
    101 H          -6.8125    6.8436   58.7256 H       1  UNL         0.0280
    102 H          -6.5578    7.2473   57.0125 H       1  UNL         0.0280
@<TRIPOS>BOND
     1     1     2   ar
     2     1     6   ar
     3     1    54    1
     4     2     3   ar
     5     2    55    1
     6     3     4   ar
     7     3    53    1
     8     4     5   ar
     9     4     7    1
    10     5     6   ar
    11     5    56    1
    12     6    57    1
    13     7     8    1
    14     7    15    1
    15     7    58    1
    16     8     9   ar
    17     8    13   ar
    18     9    10   ar
    19     9    14    1
    20    10    11   ar
    21    10    59    1
    22    11    12   ar
    23    11    60    1
    24    12    13   ar
    25    12    61    1
    26    14    62    1
    27    14    63    1
    28    14    64    1
    29    15    16   am
    30    15    52    1
    31    16    17    2
    32    16    18    1
    33    18    19    1
    34    18    51    1
    35    18    65    1
    36    19    20    1
    37    19    66    1
    38    19    67    1
    39    20    21    1
    40    20    68    1
    41    20    69    1
    42    21    22    1
    43    21    26    1
    44    21    50    1
    45    22    23    1
    46    22    70    1
    47    22    71    1
    48    23    24    1
    49    23    27    1
    50    24    25    1
    51    24    72    1
    52    24    73    1
    53    25    26    1
    54    25    74    1
    55    25    75    1
    56    26    76    1
    57    26    77    1
    58    27    28   ar
    59    27    32   ar
    60    28    29   ar
    61    28    78    1
    62    29    30   ar
    63    29    79    1
    64    30    31   ar
    65    30    34    1
    66    31    32   ar
    67    31    80    1
    68    32    33    1
    69    34    35    1
    70    34    81    1
    71    35    36   ar
    72    35    40   ar
    73    36    37   ar
    74    36    82    1
    75    37    38   ar
    76    37    83    1
    77    38    39   ar
    78    38    41    1
    79    39    40   ar
    80    39    84    1
    81    40    85    1
    82    41    42   ar
    83    41    46   ar
    84    42    43   ar
    85    42    86    1
    86    43    44   ar
    87    43    47    1
    88    44    45   ar
    89    44    87    1
    90    45    46   ar
    91    45    88    1
    92    46    89    1
    93    47    48    1
    94    47    49    1
    95    48    90    1
    96    49    91    1
    97    49    92    1
    98    50    51    1
    99    50    93    1
   100    50    94    1
   101    51    95    1
   102    51    96    1
   103    52    97    1
   104    52    98    1
   105    52    99    1
   106    53   100    1
   107    53   101    1
   108    53   102    1
@<TRIPOS>SUBSTRUCTURE
     1 UNL         1 TEMP              0 ****  ****    0 ROOT

