
##########                                Name:     oleObject80.pdb
##########                DOCK_Rotatable_Bonds:                  14
##########                         Heavy_Atoms:                  51
##########                    Molecular_Weight:             703.283
##########                DOCK_Rotatable_Bonds:                  14
##########                       Formal_Charge:         0.000299793
##########                     HBond_Acceptors:                  10
##########                        HBond_Donors:                   3
##########                         Heavy_Atoms:                  51
##########                          Grid_Score:          -40.451458
##########                     Grid_vdw_energy:          -40.932266
##########                      Grid_es_energy:            0.480807
##########           Internal_energy_repulsive:           33.255817

@<TRIPOS>MOLECULE
oleObject80.pdb
 94 99 1 0 0
SMALL
NO_CHARGES


@<TRIPOS>ATOM
      1 C         -10.0118    0.3075   64.4441 C.ar    1  UNL        -0.0620
      2 C         -11.1162    1.1079   64.1195 C.ar    1  UNL        -0.0590
      3 C         -11.3824    1.4597   62.7819 C.ar    1  UNL        -0.0456
      4 C         -10.5243    1.0011   61.7501 C.ar    1  UNL        -0.0185
      5 C          -9.4170    0.1938   62.0938 C.ar    1  UNL        -0.0565
      6 C          -9.1624   -0.1508   63.4292 C.ar    1  UNL        -0.0619
      7 C         -10.7854    1.3767   60.2804 C.3     1  UNL         0.0931
      8 C          -9.5402    1.8990   59.5417 C.ar    1  UNL         0.0683
      9 C          -9.3769    3.2757   59.2441 C.ar    1  UNL        -0.0272
     10 C          -8.2152    3.6809   58.5603 C.ar    1  UNL        -0.0559
     11 C          -7.2611    2.7178   58.2023 C.ar    1  UNL        -0.0435
     12 C          -7.4982    1.3784   58.5438 C.ar    1  UNL         0.0272
     13 N          -8.6057    0.9812   59.1974 N.ar    1  UNL        -0.2587
     14 C         -10.4117    4.3231   59.6405 C.3     1  UNL        -0.0379
     15 N         -11.5406    0.3438   59.5140 N.am    1  UNL        -0.2918
     16 C         -12.0392    0.6295   58.2379 C.2     1  UNL         0.2180
     17 O         -11.6514    1.6097   57.6231 O.2     1  UNL        -0.2772
     18 C         -12.8118   -0.5003   57.5120 C.3     1  UNL         0.0385
     19 C         -11.8567   -1.5326   56.8637 C.3     1  UNL        -0.0289
     20 C         -11.1637   -0.9654   55.6078 C.3     1  UNL        -0.0010
     21 N         -12.1470   -0.5091   54.6022 N.4     1  UNL        -0.3010
     22 C         -13.0975    0.4973   55.1337 C.3     1  UNL        -0.0010
     23 C         -13.7961    0.0309   56.4361 C.3     1  UNL        -0.0289
     24 C         -11.4847   -0.1100   53.3405 C.3     1  UNL         0.0222
     25 C         -10.3679    0.9359   53.5361 C.3     1  UNL         0.0661
     26 O          -9.5601    0.9429   52.3456 O.3     1  UNL        -0.3432
     27 C          -8.4075    1.6926   52.2092 C.ar    1  UNL         0.0937
     28 C          -8.4409    3.0761   51.9414 C.ar    1  UNL        -0.0284
     29 C          -7.2444    3.7998   51.8086 C.ar    1  UNL        -0.0381
     30 C          -5.9999    3.1630   51.9540 C.ar    1  UNL         0.0319
     31 C          -5.9682    1.7766   52.1996 C.ar    1  UNL        -0.0194
     32 C          -7.1616    1.0477   52.3319 C.ar    1  UNL         0.0727
     33 CL         -7.0687   -0.6761   52.6416 Cl      1  UNL        -0.0814
     34 N          -4.8381    3.9165   51.7968 N.pl3   1  UNL        -0.3136
     35 C          -3.5174    3.5429   51.5499 C.ar    1  UNL         0.0489
     36 C          -3.2406    2.5892   50.5545 C.ar    1  UNL         0.0488
     37 N          -1.9922    2.1882   50.2417 N.ar    1  UNL        -0.2543
     38 C          -0.9301    2.7195   50.8863 C.ar    1  UNL         0.0703
     39 C          -1.1240    3.7019   51.8921 C.ar    1  UNL        -0.0339
     40 C          -2.4236    4.1190   52.2215 C.ar    1  UNL        -0.0371
     41 C           0.4324    2.2261   50.4780 C.ar    1  UNL         0.0009
     42 C           0.6474    1.5798   49.2327 C.ar    1  UNL        -0.0402
     43 C           1.9187    1.1126   48.8387 C.ar    1  UNL         0.0375
     44 C           3.0094    1.2944   49.7142 C.ar    1  UNL        -0.0496
     45 C           2.8253    1.9247   50.9527 C.ar    1  UNL        -0.0608
     46 C           1.5551    2.3825   51.3307 C.ar    1  UNL        -0.0528
     47 C           2.0763    0.4321   47.5004 C.2     1  UNL         0.2403
     48 O           3.0593    0.5900   46.7989 O.2     1  UNL        -0.2722
     49 N           1.0545   -0.3939   47.0822 N.am    1  UNL        -0.3251
     50 C         -11.6601   -0.9994   60.1244 C.3     1  UNL         0.0037
     51 C         -12.6012    2.3297   62.4883 C.3     1  UNL        -0.0394
     52 H          -9.8168    0.0419   65.4792 H       1  UNL         0.0623
     53 H         -11.7692    1.4560   64.9150 H       1  UNL         0.0626
     54 H          -8.7472   -0.1816   61.3266 H       1  UNL         0.0627
     55 H          -8.3074   -0.7739   63.6759 H       1  UNL         0.0623
     56 H         -11.4484    2.2437   60.3365 H       1  UNL         0.0626
     57 H          -8.0534    4.7256   58.3099 H       1  UNL         0.0627
     58 H          -6.3561    3.0029   57.6740 H       1  UNL         0.0639
     59 H          -6.7811    0.5999   58.2867 H       1  UNL         0.0840
     60 H         -11.3443    4.1861   59.0791 H       1  UNL         0.0280
     61 H         -10.0542    5.3408   59.4401 H       1  UNL         0.0280
     62 H         -10.6462    4.2654   60.7106 H       1  UNL         0.0280
     63 H         -13.4222   -1.0177   58.2612 H       1  UNL         0.0402
     64 H         -12.4315   -2.4227   56.5769 H       1  UNL         0.0288
     65 H         -11.1005   -1.8700   57.5806 H       1  UNL         0.0288
     66 H         -10.5264   -1.7491   55.1783 H       1  UNL         0.0431
     67 H         -10.5123   -0.1306   55.9006 H       1  UNL         0.0431
     68 H         -13.8786    0.7117   54.3949 H       1  UNL         0.0431
     69 H         -12.5636    1.4368   55.3227 H       1  UNL         0.0431
     70 H         -14.4970   -0.7736   56.1783 H       1  UNL         0.0288
     71 H         -14.4005    0.8488   56.8486 H       1  UNL         0.0288
     72 H         -12.2320    0.3234   52.6630 H       1  UNL         0.0455
     73 H         -11.0636   -0.9942   52.8442 H       1  UNL         0.0455
     74 H          -9.7522    0.6740   54.4052 H       1  UNL         0.0586
     75 H         -10.8174    1.9242   53.6963 H       1  UNL         0.0586
     76 H          -9.3844    3.6009   51.8321 H       1  UNL         0.0652
     77 H          -7.2857    4.8655   51.6010 H       1  UNL         0.0644
     78 H          -5.0203    1.2522   52.2686 H       1  UNL         0.0659
     79 H          -4.9761    4.9151   51.8855 H       1  UNL         0.1528
     80 H          -4.0480    2.1215   49.9926 H       1  UNL         0.0861
     81 H          -0.2839    4.1353   52.4233 H       1  UNL         0.0646
     82 H          -2.5676    4.8894   52.9725 H       1  UNL         0.0644
     83 H          -0.1904    1.4199   48.5629 H       1  UNL         0.0638
     84 H           4.0041    0.9502   49.4489 H       1  UNL         0.0631
     85 H           3.6700    2.0605   51.6223 H       1  UNL         0.0623
     86 H           1.4472    2.8726   52.2942 H       1  UNL         0.0630
     87 H           1.1195   -0.8693   46.1921 H       1  UNL         0.1458
     88 H           0.2461   -0.5153   47.6789 H       1  UNL         0.1458
     89 H         -11.2870   -1.0142   61.1538 H       1  UNL         0.0433
     90 H         -11.0788   -1.7291   59.5489 H       1  UNL         0.0433
     91 H         -12.7137   -1.3052   60.1329 H       1  UNL         0.0433
     92 H         -13.1693    2.5538   63.3998 H       1  UNL         0.0280
     93 H         -13.2883    1.8303   61.7946 H       1  UNL         0.0280
     94 H         -12.3070    3.2893   62.0456 H       1  UNL         0.0280
@<TRIPOS>BOND
     1     1     2   ar
     2     1     6   ar
     3     1    52    1
     4     2     3   ar
     5     2    53    1
     6     3     4   ar
     7     3    51    1
     8     4     5   ar
     9     4     7    1
    10     5     6   ar
    11     5    54    1
    12     6    55    1
    13     7     8    1
    14     7    15    1
    15     7    56    1
    16     8     9   ar
    17     8    13   ar
    18     9    10   ar
    19     9    14    1
    20    10    11   ar
    21    10    57    1
    22    11    12   ar
    23    11    58    1
    24    12    13   ar
    25    12    59    1
    26    14    60    1
    27    14    61    1
    28    14    62    1
    29    15    16   am
    30    15    50    1
    31    16    17    2
    32    16    18    1
    33    18    19    1
    34    18    23    1
    35    18    63    1
    36    19    20    1
    37    19    64    1
    38    19    65    1
    39    20    21    1
    40    20    66    1
    41    20    67    1
    42    21    22    1
    43    21    24    1
    44    22    23    1
    45    22    68    1
    46    22    69    1
    47    23    70    1
    48    23    71    1
    49    24    25    1
    50    24    72    1
    51    24    73    1
    52    25    26    1
    53    25    74    1
    54    25    75    1
    55    26    27    1
    56    27    28   ar
    57    27    32   ar
    58    28    29   ar
    59    28    76    1
    60    29    30   ar
    61    29    77    1
    62    30    31   ar
    63    30    34    1
    64    31    32   ar
    65    31    78    1
    66    32    33    1
    67    34    35    1
    68    34    79    1
    69    35    36   ar
    70    35    40   ar
    71    36    37   ar
    72    36    80    1
    73    37    38   ar
    74    38    39   ar
    75    38    41    1
    76    39    40   ar
    77    39    81    1
    78    40    82    1
    79    41    42   ar
    80    41    46   ar
    81    42    43   ar
    82    42    83    1
    83    43    44   ar
    84    43    47    1
    85    44    45   ar
    86    44    84    1
    87    45    46   ar
    88    45    85    1
    89    46    86    1
    90    47    48    2
    91    47    49   am
    92    49    87    1
    93    49    88    1
    94    50    89    1
    95    50    90    1
    96    50    91    1
    97    51    92    1
    98    51    93    1
    99    51    94    1
@<TRIPOS>SUBSTRUCTURE
     1 UNL         1 TEMP              0 ****  ****    0 ROOT


##########                                Name:     oleObject70.pdb
##########                DOCK_Rotatable_Bonds:                   9
##########                         Heavy_Atoms:                  35
##########                    Molecular_Weight:             504.458
##########                DOCK_Rotatable_Bonds:                   9
##########                       Formal_Charge:          0.00010002
##########                     HBond_Acceptors:                   6
##########                        HBond_Donors:                   2
##########                         Heavy_Atoms:                  35
##########                          Grid_Score:          -40.064384
##########                     Grid_vdw_energy:          -40.037086
##########                      Grid_es_energy:           -0.027298
##########           Internal_energy_repulsive:           15.203591

@<TRIPOS>MOLECULE
oleObject70.pdb
 62 65 1 0 0
SMALL
NO_CHARGES


@<TRIPOS>ATOM
      1 C         -14.1050   -2.5886   56.2689 C.ar    1  UNL        -0.0620
      2 C         -12.8284   -3.0793   56.5783 C.ar    1  UNL        -0.0590
      3 C         -11.7529   -2.1978   56.8020 C.ar    1  UNL        -0.0456
      4 C         -11.9637   -0.7974   56.7239 C.ar    1  UNL        -0.0187
      5 C         -13.2516   -0.3202   56.3965 C.ar    1  UNL        -0.0565
      6 C         -14.3151   -1.2071   56.1734 C.ar    1  UNL        -0.0619
      7 C         -10.8127    0.1963   56.9623 C.3     1  UNL         0.0909
      8 C         -10.1251    0.0398   58.3297 C.ar    1  UNL         0.0681
      9 C         -10.7922    0.3524   59.5414 C.ar    1  UNL        -0.0272
     10 C         -10.0936    0.1870   60.7523 C.ar    1  UNL        -0.0559
     11 C          -8.7725   -0.2819   60.7214 C.ar    1  UNL        -0.0435
     12 C          -8.1923   -0.5737   59.4783 C.ar    1  UNL         0.0272
     13 N          -8.8519   -0.4194   58.3154 N.ar    1  UNL        -0.2587
     14 C         -12.2285    0.8631   59.5737 C.3     1  UNL        -0.0379
     15 N          -9.8878    0.2899   55.8112 N.am    1  UNL        -0.2987
     16 C          -9.0172    1.3353   55.5292 C.2     1  UNL         0.2437
     17 O          -8.9188    2.3198   56.2414 O.2     1  UNL        -0.2719
     18 C          -8.1753    1.1853   54.2845 C.ar    1  UNL         0.0371
     19 C          -8.2831    0.0610   53.4352 C.ar    1  UNL        -0.0494
     20 C          -7.4852   -0.0455   52.2841 C.ar    1  UNL        -0.0570
     21 C          -6.5658    0.9655   51.9588 C.ar    1  UNL        -0.0341
     22 C          -6.4539    2.0876   52.7962 C.ar    1  UNL        -0.0570
     23 C          -7.2501    2.1952   53.9479 C.ar    1  UNL        -0.0494
     24 C          -5.7096    0.8503   50.7089 C.3     1  UNL         0.0208
     25 N          -4.2983    1.1325   50.9999 N.4     1  UNL        -0.3086
     26 C          -3.7983    2.3629   50.3724 C.3     1  UNL         0.0223
     27 C          -2.2861    2.4829   50.5060 C.ar    1  UNL        -0.0154
     28 C          -1.4591    1.9119   49.5197 C.ar    1  UNL        -0.0548
     29 C          -0.0616    2.0118   49.6158 C.ar    1  UNL        -0.0431
     30 C           0.5193    2.6866   50.7006 C.ar    1  UNL         0.0421
     31 C          -0.2957    3.2624   51.6877 C.ar    1  UNL        -0.0245
     32 C          -1.6943    3.1630   51.5929 C.ar    1  UNL         0.0465
     33 CL         -2.6703    3.9068   52.8466 Cl      1  UNL        -0.0839
     34 CL          2.2614    2.8128   50.8211 Cl      1  UNL        -0.0843
     35 C         -10.3804   -2.7899   57.1072 C.3     1  UNL        -0.0394
     36 H         -14.9261   -3.2778   56.0938 H       1  UNL         0.0623
     37 H         -12.6746   -4.1531   56.6379 H       1  UNL         0.0626
     38 H         -13.4356    0.7448   56.3018 H       1  UNL         0.0627
     39 H         -15.2992   -0.8224   55.9217 H       1  UNL         0.0623
     40 H         -11.2788    1.1858   56.9881 H       1  UNL         0.0624
     41 H         -10.5651    0.4199   61.7028 H       1  UNL         0.0627
     42 H          -8.2095   -0.4165   61.6401 H       1  UNL         0.0639
     43 H          -7.1689   -0.9399   59.4095 H       1  UNL         0.0840
     44 H         -12.3094    1.8456   59.0931 H       1  UNL         0.0280
     45 H         -12.5939    0.9729   60.6024 H       1  UNL         0.0280
     46 H         -12.9087    0.1731   59.0599 H       1  UNL         0.0280
     47 H          -9.8949   -0.4824   55.1596 H       1  UNL         0.1508
     48 H          -8.9814   -0.7405   53.6532 H       1  UNL         0.0631
     49 H          -7.5844   -0.9152   51.6404 H       1  UNL         0.0626
     50 H          -5.7510    2.8799   52.5540 H       1  UNL         0.0626
     51 H          -7.1456    3.0732   54.5793 H       1  UNL         0.0631
     52 H          -6.0809    1.5537   49.9522 H       1  UNL         0.0479
     53 H          -5.8080   -0.1625   50.2968 H       1  UNL         0.0479
     54 H          -3.7301    0.3451   50.6881 H       1  UNL         0.1229
     55 H          -4.2735    3.2332   50.8433 H       1  UNL         0.0480
     56 H          -4.0721    2.3797   49.3096 H       1  UNL         0.0480
     57 H          -1.9008    1.3918   48.6741 H       1  UNL         0.0627
     58 H           0.5683    1.5685   48.8497 H       1  UNL         0.0639
     59 H           0.1558    3.7870   52.5249 H       1  UNL         0.0654
     60 H         -10.3712   -3.8797   56.9800 H       1  UNL         0.0280
     61 H         -10.0810   -2.5781   58.1412 H       1  UNL         0.0280
     62 H          -9.6134   -2.3804   56.4380 H       1  UNL         0.0280
@<TRIPOS>BOND
     1     1     2   ar
     2     1     6   ar
     3     1    36    1
     4     2     3   ar
     5     2    37    1
     6     3     4   ar
     7     3    35    1
     8     4     5   ar
     9     4     7    1
    10     5     6   ar
    11     5    38    1
    12     6    39    1
    13     7     8    1
    14     7    15    1
    15     7    40    1
    16     8     9   ar
    17     8    13   ar
    18     9    10   ar
    19     9    14    1
    20    10    11   ar
    21    10    41    1
    22    11    12   ar
    23    11    42    1
    24    12    13   ar
    25    12    43    1
    26    14    44    1
    27    14    45    1
    28    14    46    1
    29    15    16   am
    30    15    47    1
    31    16    17    2
    32    16    18    1
    33    18    19   ar
    34    18    23   ar
    35    19    20   ar
    36    19    48    1
    37    20    21   ar
    38    20    49    1
    39    21    22   ar
    40    21    24    1
    41    22    23   ar
    42    22    50    1
    43    23    51    1
    44    24    25    1
    45    24    52    1
    46    24    53    1
    47    25    26    1
    48    25    54    1
    49    26    27    1
    50    26    55    1
    51    26    56    1
    52    27    28   ar
    53    27    32   ar
    54    28    29   ar
    55    28    57    1
    56    29    30   ar
    57    29    58    1
    58    30    31   ar
    59    30    34    1
    60    31    32   ar
    61    31    59    1
    62    32    33    1
    63    35    60    1
    64    35    61    1
    65    35    62    1
@<TRIPOS>SUBSTRUCTURE
     1 UNL         1 TEMP              0 ****  ****    0 ROOT


##########                                Name:    ZINC000508765459
##########                DOCK_Rotatable_Bonds:                  10
##########                         Heavy_Atoms:                  29
##########                    Molecular_Weight:               405.5
##########                DOCK_Rotatable_Bonds:                  10
##########                       Formal_Charge:         -6.4075e-07
##########                     HBond_Acceptors:                  10
##########                        HBond_Donors:                   1
##########                         Heavy_Atoms:                  29
##########                          Grid_Score:          -39.189941
##########                     Grid_vdw_energy:          -38.049690
##########                      Grid_es_energy:           -1.140249
##########           Internal_energy_repulsive:           20.668631

@<TRIPOS>MOLECULE
ZINC000508765459
 60 62 1 0 0
SMALL
USER_CHARGES


@<TRIPOS>ATOM
      1 C1         -8.5833    1.0359   63.2956 C.3     1  ZINC000508765459    0.0300
      2 O2         -8.2972    0.1188   62.2376 O.3     1  ZINC000508765459   -0.3900
      3 C3         -8.5656    0.6352   60.9325 C.3     1  ZINC000508765459    0.0500
      4 C4         -8.1686   -0.4034   59.8816 C.3     1  ZINC000508765459    0.1100
      5 N5         -8.5009    0.1008   58.5468 N.am    1  ZINC000508765459   -0.5900
      6 C6         -9.7368   -0.3671   57.9345 C.3     1  ZINC000508765459    0.1000
      7 C7        -10.2094    0.6070   56.8535 C.3     1  ZINC000508765459    0.1200
      8 N8         -9.0543    0.9490   56.0062 N.am    1  ZINC000508765459   -0.6400
      9 C9         -9.0399    0.6592   54.6901 C.2     1  ZINC000508765459    0.7100
     10 O10        -9.9941    0.1054   54.1790 O.2     1  ZINC000508765459   -0.5800
     11 N11        -7.9677    0.9832   53.9405 N.am    1  ZINC000508765459   -0.7400
     12 C12        -7.9527    0.6697   52.5094 C.3     1  ZINC000508765459    0.1400
     13 C13        -6.5600    0.9489   51.9407 C.3     1  ZINC000508765459   -0.1400
     14 C14        -6.4845    2.4018   51.4672 C.3     1  ZINC000508765459    0.0600
     15 N15        -5.0860    2.7535   51.1873 N.3     1  ZINC000508765459   -0.5400
     16 C16        -4.3752    1.6295   50.5619 C.3     1  ZINC000508765459    0.0500
     17 C17        -2.9486    2.0614   50.2146 C.3     1  ZINC000508765459    0.0700
     18 N18        -2.2613    2.5007   51.4370 N.3     1  ZINC000508765459   -0.4600
     19 C19        -0.9436    2.8321   51.1733 C.ar    1  ZINC000508765459    0.4900
     20 N20        -0.3016    2.2052   50.1986 N.ar    1  ZINC000508765459   -0.5500
     21 C21         0.9579    2.4983   49.9204 C.ar    1  ZINC000508765459    0.1700
     22 C22         1.6048    3.4738   50.6627 C.ar    1  ZINC000508765459   -0.2600
     23 C23         0.9037    4.1100   51.6750 C.ar    1  ZINC000508765459    0.1700
     24 N24        -0.3558    3.7728   51.8981 N.ar    1  ZINC000508765459   -0.5300
     25 C25        -2.9720    3.6246   52.0625 C.3     1  ZINC000508765459    0.0700
     26 C26        -4.3986    3.1928   52.4097 C.3     1  ZINC000508765459    0.0600
     27 C27        -7.9178    1.6201   56.6544 C.3     1  ZINC000508765459    0.1000
     28 C28        -7.6529    0.9603   57.9798 C.2     1  ZINC000508765459    0.5100
     29 O29        -6.6165    1.2150   58.5560 O.2     1  ZINC000508765459   -0.5400
     30 H30        -9.6391    1.3054   63.2673 H       1  ZINC000508765459    0.0400
     31 H31        -8.3531    0.5689   64.2533 H       1  ZINC000508765459    0.0900
     32 H32        -7.9759    1.9327   63.1733 H       1  ZINC000508765459    0.0400
     33 H33        -9.6290    0.8566   60.8409 H       1  ZINC000508765459    0.0500
     34 H34        -7.9898    1.5476   60.7773 H       1  ZINC000508765459    0.0600
     35 H35        -7.0966   -0.5909   59.9427 H       1  ZINC000508765459    0.1100
     36 H36        -8.7107   -1.3313   60.0647 H       1  ZINC000508765459    0.0900
     37 H37        -9.5669   -1.3459   57.4860 H       1  ZINC000508765459    0.0700
     38 H38       -10.5068   -0.4533   58.7011 H       1  ZINC000508765459    0.1000
     39 H39       -10.9836    0.1364   56.2474 H       1  ZINC000508765459    0.1200
     40 H40       -10.6041    1.5100   57.3192 H       1  ZINC000508765459    0.0800
     41 H41        -7.2060    1.4239   54.3484 H       1  ZINC000508765459    0.4000
     42 H42        -8.1999   -0.3821   52.3653 H       1  ZINC000508765459    0.0700
     43 H43        -8.6866    1.2894   51.9941 H       1  ZINC000508765459    0.0700
     44 H44        -5.8111    0.7794   52.7143 H       1  ZINC000508765459    0.0700
     45 H45        -6.3708    0.2823   51.0994 H       1  ZINC000508765459    0.0800
     46 H46        -7.0773    2.5197   50.5602 H       1  ZINC000508765459    0.0800
     47 H47        -6.8756    3.0581   52.2447 H       1  ZINC000508765459    0.0400
     48 H48        -4.3421    0.7891   51.2553 H       1  ZINC000508765459    0.0500
     49 H49        -4.8963    1.3307   49.6524 H       1  ZINC000508765459    0.0900
     50 H50        -2.4104    1.2206   49.7771 H       1  ZINC000508765459    0.0900
     51 H51        -2.9813    2.8841   49.5003 H       1  ZINC000508765459    0.0600
     52 H52         1.4760    1.9836   49.1248 H       1  ZINC000508765459    0.1700
     53 H53         2.6330    3.7325   50.4569 H       1  ZINC000508765459    0.1500
     54 H54         1.3787    4.8743   52.2721 H       1  ZINC000508765459    0.1700
     55 H55        -2.4509    3.9236   52.9720 H       1  ZINC000508765459    0.1000
     56 H56        -3.0050    4.4650   51.3691 H       1  ZINC000508765459    0.0500
     57 H57        -4.9367    4.0337   52.8473 H       1  ZINC000508765459    0.0900
     58 H58        -4.3658    2.3702   53.1241 H       1  ZINC000508765459    0.0500
     59 H59        -7.0353    1.5383   56.0199 H       1  ZINC000508765459    0.1100
     60 H60        -8.1578    2.6711   56.8152 H       1  ZINC000508765459    0.1100
@<TRIPOS>BOND
     1     1     2    1
     2     1    30    1
     3     1    31    1
     4     1    32    1
     5     2     3    1
     6     3     4    1
     7     3    33    1
     8     3    34    1
     9     4     5    1
    10     4    35    1
    11     4    36    1
    12     5    28   am
    13     5     6    1
    14     6     7    1
    15     6    37    1
    16     6    38    1
    17     7     8    1
    18     7    39    1
    19     7    40    1
    20     8     9   am
    21     8    27    1
    22     9    10    2
    23     9    11   am
    24    11    12    1
    25    11    41    1
    26    12    13    1
    27    12    42    1
    28    12    43    1
    29    13    14    1
    30    13    44    1
    31    13    45    1
    32    14    15    1
    33    14    46    1
    34    14    47    1
    35    15    26    1
    36    15    16    1
    37    16    17    1
    38    16    48    1
    39    16    49    1
    40    17    18    1
    41    17    50    1
    42    17    51    1
    43    18    19    1
    44    18    25    1
    45    19    24   ar
    46    19    20   ar
    47    20    21   ar
    48    21    22   ar
    49    21    52    1
    50    22    23   ar
    51    22    53    1
    52    23    24   ar
    53    23    54    1
    54    25    26    1
    55    25    55    1
    56    25    56    1
    57    26    57    1
    58    26    58    1
    59    27    28    1
    60    27    59    1
    61    27    60    1
    62    28    29    2
@<TRIPOS>SUBSTRUCTURE
     1 ZINC000508765459        1 TEMP              0 ****  ****    0 ROOT


##########                                Name:    ZINC000013809319
##########                DOCK_Rotatable_Bonds:                  10
##########                         Heavy_Atoms:                  30
##########                    Molecular_Weight:             407.469
##########                DOCK_Rotatable_Bonds:                  10
##########                       Formal_Charge:         -0.00999978
##########                     HBond_Acceptors:                   7
##########                        HBond_Donors:                   1
##########                         Heavy_Atoms:                  30
##########                          Grid_Score:          -38.265587
##########                     Grid_vdw_energy:          -37.838882
##########                      Grid_es_energy:           -0.426705
##########           Internal_energy_repulsive:           15.175205

@<TRIPOS>MOLECULE
ZINC000013809319
 55 57 1 0 0
SMALL
USER_CHARGES


@<TRIPOS>ATOM
      1 C1        -11.7508   -1.9691   59.5147 C.3     1  ZINC000013809319   -0.1500
      2 C2        -10.8858   -1.0652   58.6339 C.3     1  ZINC000013809319    0.0500
      3 O3        -11.3985   -1.0681   57.3001 O.3     1  ZINC000013809319   -0.3100
      4 C4        -10.5734   -0.6148   56.3215 C.ar    1  ZINC000013809319    0.1500
      5 C5         -9.5833    0.3118   56.6240 C.ar    1  ZINC000013809319   -0.2200
      6 C6         -8.7440    0.7736   55.6336 C.ar    1  ZINC000013809319   -0.0300
      7 C7         -8.8893    0.3094   54.3253 C.ar    1  ZINC000013809319   -0.1100
      8 C8         -7.9893    0.8027   53.2589 C.2     1  ZINC000013809319    0.2300
      9 C9         -7.2767   -0.0924   52.4776 C.2     1  ZINC000013809319   -0.2900
     10 C10        -6.4338    0.4190   51.4756 C.2     1  ZINC000013809319    0.5300
     11 O11        -5.7875   -0.3320   50.7633 O.2     1  ZINC000013809319   -0.5400
     12 N12        -6.3535    1.7567   51.3166 N.am    1  ZINC000013809319   -0.5100
     13 C13        -5.4830    2.3165   50.2797 C.3     1  ZINC000013809319    0.0700
     14 C14        -4.0714    2.4009   50.8006 C.2     1  ZINC000013809319    0.5000
     15 O15        -3.2066    1.6954   50.3260 O.2     1  ZINC000013809319   -0.5200
     16 N16        -3.7700    3.2604   51.7940 N.am    1  ZINC000013809319   -0.7200
     17 C17        -2.3974    3.3438   52.2993 C.3     1  ZINC000013809319    0.1300
     18 C18        -2.3099    4.4443   53.3586 C.3     1  ZINC000013809319   -0.0800
     19 C19        -3.1670    4.0725   54.5411 C.ar    1  ZINC000013809319   -0.1200
     20 C20        -4.4710    4.5214   54.6180 C.ar    1  ZINC000013809319   -0.0800
     21 C21        -5.2577    4.1810   55.7032 C.ar    1  ZINC000013809319   -0.1500
     22 C22        -4.7418    3.3905   56.7131 C.ar    1  ZINC000013809319   -0.0800
     23 C23        -3.4381    2.9385   56.6407 C.ar    1  ZINC000013809319   -0.2100
     24 C24        -2.6485    3.2742   55.5507 C.ar    1  ZINC000013809319    0.1300
     25 O25        -1.3660    2.8310   55.4771 O.3     1  ZINC000013809319   -0.3100
     26 C26        -0.9135    1.9766   56.5295 C.3     1  ZINC000013809319    0.0300
     27 C27        -7.0707    2.5804   52.1070 C.2     1  ZINC000013809319    0.3900
     28 N28        -7.8614    2.1227   53.0377 N.2     1  ZINC000013809319   -0.5300
     29 C29        -9.8851   -0.6215   54.0251 C.ar    1  ZINC000013809319   -0.0500
     30 C30       -10.7175   -1.0830   55.0215 C.ar    1  ZINC000013809319   -0.1600
     31 H31       -12.7761   -1.5989   59.5189 H       1  ZINC000013809319    0.0700
     32 H32       -11.7329   -2.9851   59.1208 H       1  ZINC000013809319    0.0700
     33 H33       -11.3597   -1.9669   60.5322 H       1  ZINC000013809319    0.0800
     34 H34       -10.9037   -0.0491   59.0280 H       1  ZINC000013809319    0.0600
     35 H35        -9.8606   -1.4353   58.6299 H       1  ZINC000013809319    0.0600
     36 H36        -9.4717    0.6708   57.6365 H       1  ZINC000013809319    0.1300
     37 H37        -7.9748    1.4942   55.8693 H       1  ZINC000013809319    0.1400
     38 H38        -7.3665   -1.1572   52.6347 H       1  ZINC000013809319    0.1600
     39 H39        -5.5075    1.6744   49.3992 H       1  ZINC000013809319    0.1300
     40 H40        -5.8317    3.3139   50.0120 H       1  ZINC000013809319    0.1300
     41 H41        -4.4620    3.8239   52.1745 H       1  ZINC000013809319    0.4000
     42 H42        -2.1150    2.3891   52.7430 H       1  ZINC000013809319    0.0700
     43 H43        -1.7210    3.5766   51.4768 H       1  ZINC000013809319    0.0700
     44 H44        -1.2749    4.5568   53.6812 H       1  ZINC000013809319    0.0800
     45 H45        -2.6628    5.3848   52.9355 H       1  ZINC000013809319    0.0800
     46 H46        -4.8762    5.1391   53.8303 H       1  ZINC000013809319    0.1300
     47 H47        -6.2769    4.5336   55.7618 H       1  ZINC000013809319    0.1300
     48 H48        -5.3581    3.1263   57.5597 H       1  ZINC000013809319    0.1300
     49 H49        -3.0355    2.3212   57.4301 H       1  ZINC000013809319    0.1300
     50 H50        -1.5320    1.0797   56.5607 H       1  ZINC000013809319    0.0600
     51 H51         0.1243    1.6963   56.3489 H       1  ZINC000013809319    0.1000
     52 H52        -0.9874    2.5023   57.4813 H       1  ZINC000013809319    0.0600
     53 H53        -6.9914    3.6479   51.9629 H       1  ZINC000013809319    0.2000
     54 H54       -10.0002   -0.9828   53.0139 H       1  ZINC000013809319    0.1400
     55 H55       -11.4879   -1.8035   54.7900 H       1  ZINC000013809319    0.1400
@<TRIPOS>BOND
     1     1     2    1
     2     1    31    1
     3     1    32    1
     4     1    33    1
     5     2     3    1
     6     2    34    1
     7     2    35    1
     8     3     4    1
     9     4    30   ar
    10     4     5   ar
    11     5     6   ar
    12     5    36    1
    13     6     7   ar
    14     6    37    1
    15     7     8    1
    16     7    29   ar
    17     8    28    1
    18     8     9    2
    19     9    10    1
    20     9    38    1
    21    10    11    2
    22    10    12   am
    23    12    13    1
    24    12    27    1
    25    13    14    1
    26    13    39    1
    27    13    40    1
    28    14    15    2
    29    14    16   am
    30    16    17    1
    31    16    41    1
    32    17    18    1
    33    17    42    1
    34    17    43    1
    35    18    19    1
    36    18    44    1
    37    18    45    1
    38    19    24   ar
    39    19    20   ar
    40    20    21   ar
    41    20    46    1
    42    21    22   ar
    43    21    47    1
    44    22    23   ar
    45    22    48    1
    46    23    24   ar
    47    23    49    1
    48    24    25    1
    49    25    26    1
    50    26    50    1
    51    26    51    1
    52    26    52    1
    53    27    28    2
    54    27    53    1
    55    29    30   ar
    56    29    54    1
    57    30    55    1
@<TRIPOS>SUBSTRUCTURE
     1 ZINC000013809319        1 TEMP              0 ****  ****    0 ROOT


##########                                Name:    ZINC000467185792
##########                DOCK_Rotatable_Bonds:                   9
##########                         Heavy_Atoms:                  29
##########                    Molecular_Weight:             412.513
##########                DOCK_Rotatable_Bonds:                   9
##########                       Formal_Charge:                0.04
##########                     HBond_Acceptors:                   8
##########                        HBond_Donors:                   2
##########                         Heavy_Atoms:                  29
##########                          Grid_Score:          -38.158119
##########                     Grid_vdw_energy:          -34.746635
##########                      Grid_es_energy:           -3.411484
##########           Internal_energy_repulsive:           21.738670

@<TRIPOS>MOLECULE
ZINC000467185792
 53 55 1 0 0
SMALL
USER_CHARGES


@<TRIPOS>ATOM
      1 C1         -7.5513    1.1769   64.1617 C.3     1  ZINC000467185792   -0.1500
      2 C2         -8.5818    0.2307   64.7812 C.3     1  ZINC000467185792   -0.1200
      3 C3         -9.9016    0.3419   64.0152 C.3     1  ZINC000467185792    0.0600
      4 O4         -9.8471   -0.4837   62.8502 O.3     1  ZINC000467185792   -0.3100
      5 C5         -9.5665    0.1309   61.6708 C.ar    1  ZINC000467185792    0.1400
      6 C6        -10.5218    0.9353   61.0648 C.ar    1  ZINC000467185792   -0.2100
      7 C7        -10.2401    1.5608   59.8682 C.ar    1  ZINC000467185792   -0.0400
      8 C8         -8.9946    1.3844   59.2675 C.ar    1  ZINC000467185792   -0.0600
      9 C9         -8.6882    2.0561   57.9808 C.2     1  ZINC000467185792    0.1400
     10 C10        -9.1044    3.3049   57.7050 C.2     1  ZINC000467185792   -0.3000
     11 S11        -8.5379    3.7307   56.0916 S.3     1  ZINC000467185792    0.2000
     12 C12        -7.7775    2.1493   55.9407 C.2     1  ZINC000467185792    0.2800
     13 N13        -7.0671    1.7028   54.8348 N.am    1  ZINC000467185792   -0.6100
     14 C14        -7.7134    1.4290   53.6842 C.2     1  ZINC000467185792    0.5900
     15 O15        -8.9189    1.5732   53.6148 O.2     1  ZINC000467185792   -0.4900
     16 C16        -6.9592    0.9550   52.5104 C.2     1  ZINC000467185792   -0.2400
     17 C17        -6.0811    1.7939   51.8270 C.2     1  ZINC000467185792    0.0800
     18 C18        -5.8707    3.2201   52.2659 C.3     1  ZINC000467185792   -0.1200
     19 C19        -6.8231    4.1367   51.4954 C.3     1  ZINC000467185792   -0.1400
     20 C20        -5.3999    1.2721   50.7205 C.2     1  ZINC000467185792    0.0600
     21 C21        -4.4407    2.1460   49.9540 C.3     1  ZINC000467185792   -0.0600
     22 C22        -3.0083    1.8428   50.3982 C.3     1  ZINC000467185792   -0.1500
     23 N23        -5.5877    0.0354   50.3474 N.2     1  ZINC000467185792   -0.1800
     24 N24        -6.3878   -0.7631   50.9534 N.am    1  ZINC000467185792   -0.4300
     25 C25        -7.0946   -0.3795   52.0337 C.2     1  ZINC000467185792    0.5000
     26 O26        -7.8477   -1.1607   52.5891 O.2     1  ZINC000467185792   -0.5300
     27 N27        -7.9806    1.4688   57.0261 N.2     1  ZINC000467185792   -0.5000
     28 C28        -8.0375    0.5759   59.8786 C.ar    1  ZINC000467185792   -0.0600
     29 C29        -8.3236   -0.0426   61.0778 C.ar    1  ZINC000467185792   -0.1500
     30 H30        -7.9189    2.2015   64.2178 H       1  ZINC000467185792    0.0600
     31 H31        -6.6112    1.0978   64.7074 H       1  ZINC000467185792    0.0700
     32 H32        -7.3899    0.9056   63.1184 H       1  ZINC000467185792    0.0600
     33 H33        -8.2142   -0.7939   64.7250 H       1  ZINC000467185792    0.0700
     34 H34        -8.7432    0.5022   65.8245 H       1  ZINC000467185792    0.0700
     35 H35       -10.7215    0.0146   64.6545 H       1  ZINC000467185792    0.0600
     36 H36       -10.0634    1.3783   63.7187 H       1  ZINC000467185792    0.0600
     37 H37       -11.4867    1.0712   61.5305 H       1  ZINC000467185792    0.1300
     38 H38       -10.9839    2.1863   59.3969 H       1  ZINC000467185792    0.1300
     39 H39        -9.6859    3.9376   58.3592 H       1  ZINC000467185792    0.1800
     40 H40        -6.1055    1.5878   54.8902 H       1  ZINC000467185792    0.4400
     41 H41        -6.0701    3.3046   53.3343 H       1  ZINC000467185792    0.0900
     42 H42        -4.8407    3.5142   52.0641 H       1  ZINC000467185792    0.1300
     43 H43        -6.6238    4.0522   50.4271 H       1  ZINC000467185792    0.0600
     44 H44        -7.8531    3.8426   51.6973 H       1  ZINC000467185792    0.0600
     45 H45        -6.6709    5.1683   51.8130 H       1  ZINC000467185792    0.0700
     46 H46        -4.5404    1.9461   48.8872 H       1  ZINC000467185792    0.1000
     47 H47        -4.6678    3.1938   50.1502 H       1  ZINC000467185792    0.1000
     48 H48        -2.3146    2.4748   49.8437 H       1  ZINC000467185792    0.0600
     49 H49        -2.9087    2.0426   51.4650 H       1  ZINC000467185792    0.0600
     50 H50        -2.7812    0.7949   50.2020 H       1  ZINC000467185792    0.0600
     51 H51        -6.4835   -1.6714   50.6264 H       1  ZINC000467185792    0.4500
     52 H52        -7.0718    0.4371   59.4155 H       1  ZINC000467185792    0.1300
     53 H53        -7.5824   -0.6687   61.5520 H       1  ZINC000467185792    0.1400
@<TRIPOS>BOND
     1     1     2    1
     2     1    30    1
     3     1    31    1
     4     1    32    1
     5     2     3    1
     6     2    33    1
     7     2    34    1
     8     3     4    1
     9     3    35    1
    10     3    36    1
    11     4     5    1
    12     5    29   ar
    13     5     6   ar
    14     6     7   ar
    15     6    37    1
    16     7     8   ar
    17     7    38    1
    18     8     9    1
    19     8    28   ar
    20     9    27    1
    21     9    10    2
    22    10    11    1
    23    10    39    1
    24    11    12    1
    25    12    13    1
    26    12    27    2
    27    13    14   am
    28    13    40    1
    29    14    15    2
    30    14    16    1
    31    16    25    1
    32    16    17    2
    33    17    18    1
    34    17    20    1
    35    18    19    1
    36    18    41    1
    37    18    42    1
    38    19    43    1
    39    19    44    1
    40    19    45    1
    41    20    21    1
    42    20    23    2
    43    21    22    1
    44    21    46    1
    45    21    47    1
    46    22    48    1
    47    22    49    1
    48    22    50    1
    49    23    24    1
    50    24    25   am
    51    24    51    1
    52    25    26    2
    53    28    29   ar
    54    28    52    1
    55    29    53    1
@<TRIPOS>SUBSTRUCTURE
     1 ZINC000467185792        1 TEMP              0 ****  ****    0 ROOT


##########                                Name:     oleObject27.pdb
##########                DOCK_Rotatable_Bonds:                   9
##########                         Heavy_Atoms:                  35
##########                    Molecular_Weight:             513.466
##########                DOCK_Rotatable_Bonds:                   9
##########                       Formal_Charge:         0.000199873
##########                     HBond_Acceptors:                   8
##########                        HBond_Donors:                   1
##########                         Heavy_Atoms:                  35
##########                          Grid_Score:          -37.070015
##########                     Grid_vdw_energy:          -36.605984
##########                      Grid_es_energy:           -0.464031
##########           Internal_energy_repulsive:           21.351818

@<TRIPOS>MOLECULE
oleObject27.pdb
 65 68 1 0 0
SMALL
NO_CHARGES


@<TRIPOS>ATOM
      1 C         -12.1163   -3.1146   57.6344 C.ar    1  UNL        -0.0620
      2 C         -12.5964   -2.4347   58.7631 C.ar    1  UNL        -0.0590
      3 C         -12.0821   -1.1717   59.1154 C.ar    1  UNL        -0.0456
      4 C         -11.0733   -0.5773   58.3170 C.ar    1  UNL        -0.0187
      5 C         -10.5921   -1.2791   57.1898 C.ar    1  UNL        -0.0565
      6 C         -11.1105   -2.5371   56.8489 C.ar    1  UNL        -0.0619
      7 C         -10.4896    0.8001   58.6694 C.3     1  UNL         0.0921
      8 C          -9.7955    0.8156   60.0350 C.ar    1  UNL         0.0681
      9 C          -8.6924   -0.0242   60.3305 C.ar    1  UNL        -0.0272
     10 C          -8.1239    0.0478   61.6162 C.ar    1  UNL        -0.0559
     11 C          -8.6700    0.9333   62.5567 C.ar    1  UNL        -0.0435
     12 C          -9.7729    1.7154   62.1827 C.ar    1  UNL         0.0272
     13 N         -10.3237    1.6544   60.9558 N.ar    1  UNL        -0.2587
     14 C          -8.1172   -1.0026   59.3129 C.3     1  UNL        -0.0379
     15 N          -9.5871    1.3219   57.6328 N.am    1  UNL        -0.2865
     16 C         -10.0035    2.0872   56.5585 C.2     1  UNL         0.3014
     17 O         -11.1757    2.3824   56.3948 O.2     1  UNL        -0.2541
     18 N          -8.9958    2.4894   55.6798 N.am    1  UNL        -0.2833
     19 C          -7.5685    2.1199   55.8843 C.3     1  UNL         0.0284
     20 C          -6.5555    2.9361   55.0451 C.3     1  UNL         0.0142
     21 N          -6.9656    3.0678   53.6362 N.4     1  UNL        -0.2979
     22 C          -8.2792    3.7381   53.5715 C.3     1  UNL         0.0142
     23 C          -9.3761    2.9469   54.3206 C.3     1  UNL         0.0284
     24 C          -6.8501    1.7996   52.8766 C.3     1  UNL         0.0223
     25 C          -5.8373    1.8752   51.7163 C.3     1  UNL         0.0661
     26 O          -4.8263    2.8306   52.0826 O.3     1  UNL        -0.3432
     27 C          -3.5132    2.7546   51.6599 C.ar    1  UNL         0.0937
     28 C          -3.1479    2.0958   50.4663 C.ar    1  UNL        -0.0288
     29 C          -1.8003    2.0419   50.0728 C.ar    1  UNL        -0.0408
     30 C          -0.8112    2.6438   50.8665 C.ar    1  UNL         0.0422
     31 C          -1.1665    3.3011   52.0547 C.ar    1  UNL        -0.0221
     32 C          -2.5132    3.3568   52.4507 C.ar    1  UNL         0.0723
     33 CL         -2.9235    4.1855   53.9410 Cl      1  UNL        -0.0814
     34 CL          0.8671    2.5747   50.3733 Cl      1  UNL        -0.0843
     35 C         -12.6280   -0.4833   60.3620 C.3     1  UNL        -0.0394
     36 H         -12.5193   -4.0889   57.3732 H       1  UNL         0.0623
     37 H         -13.3719   -2.8955   59.3685 H       1  UNL         0.0626
     38 H          -9.8054   -0.8543   56.5734 H       1  UNL         0.0627
     39 H         -10.7306   -3.0636   55.9781 H       1  UNL         0.0623
     40 H         -11.3310    1.4980   58.7095 H       1  UNL         0.0625
     41 H          -7.2753   -0.5752   61.8848 H       1  UNL         0.0627
     42 H          -8.2519    1.0083   63.5561 H       1  UNL         0.0639
     43 H         -10.2297    2.4115   62.8851 H       1  UNL         0.0840
     44 H          -8.8998   -1.6550   58.9052 H       1  UNL         0.0280
     45 H          -7.3535   -1.6505   59.7611 H       1  UNL         0.0280
     46 H          -7.6474   -0.4706   58.4764 H       1  UNL         0.0280
     47 H          -8.6099    1.0714   57.6869 H       1  UNL         0.1521
     48 H          -7.4565    1.0558   55.6403 H       1  UNL         0.0484
     49 H          -7.2982    2.2495   56.9395 H       1  UNL         0.0484
     50 H          -5.5642    2.4699   55.1129 H       1  UNL         0.0447
     51 H          -6.4731    3.9380   55.4865 H       1  UNL         0.0447
     52 H          -8.5892    3.9045   52.5333 H       1  UNL         0.0447
     53 H          -8.1946    4.7278   54.0389 H       1  UNL         0.0447
     54 H          -9.6451    2.0626   53.7291 H       1  UNL         0.0484
     55 H         -10.2694    3.5810   54.3878 H       1  UNL         0.0484
     56 H          -7.8265    1.5015   52.4741 H       1  UNL         0.0455
     57 H          -6.5204    1.0041   53.5572 H       1  UNL         0.0455
     58 H          -6.3517    2.1959   50.8013 H       1  UNL         0.0586
     59 H          -5.3805    0.8924   51.5485 H       1  UNL         0.0586
     60 H          -3.8958    1.6243   49.8373 H       1  UNL         0.0652
     61 H          -1.5243    1.5336   49.1532 H       1  UNL         0.0639
     62 H          -0.4003    3.7666   52.6682 H       1  UNL         0.0655
     63 H         -13.3255   -1.1291   60.9098 H       1  UNL         0.0280
     64 H         -13.1692    0.4345   60.1005 H       1  UNL         0.0280
     65 H         -11.8193   -0.2192   61.0544 H       1  UNL         0.0280
@<TRIPOS>BOND
     1     1     2   ar
     2     1     6   ar
     3     1    36    1
     4     2     3   ar
     5     2    37    1
     6     3     4   ar
     7     3    35    1
     8     4     5   ar
     9     4     7    1
    10     5     6   ar
    11     5    38    1
    12     6    39    1
    13     7     8    1
    14     7    15    1
    15     7    40    1
    16     8     9   ar
    17     8    13   ar
    18     9    10   ar
    19     9    14    1
    20    10    11   ar
    21    10    41    1
    22    11    12   ar
    23    11    42    1
    24    12    13   ar
    25    12    43    1
    26    14    44    1
    27    14    45    1
    28    14    46    1
    29    15    16   am
    30    15    47    1
    31    16    17    2
    32    16    18   am
    33    18    19    1
    34    18    23    1
    35    19    20    1
    36    19    48    1
    37    19    49    1
    38    20    21    1
    39    20    50    1
    40    20    51    1
    41    21    22    1
    42    21    24    1
    43    22    23    1
    44    22    52    1
    45    22    53    1
    46    23    54    1
    47    23    55    1
    48    24    25    1
    49    24    56    1
    50    24    57    1
    51    25    26    1
    52    25    58    1
    53    25    59    1
    54    26    27    1
    55    27    28   ar
    56    27    32   ar
    57    28    29   ar
    58    28    60    1
    59    29    30   ar
    60    29    61    1
    61    30    31   ar
    62    30    34    1
    63    31    32   ar
    64    31    62    1
    65    32    33    1
    66    35    63    1
    67    35    64    1
    68    35    65    1
@<TRIPOS>SUBSTRUCTURE
     1 UNL         1 TEMP              0 ****  ****    0 ROOT


##########                                Name:    ZINC000770814339
##########                DOCK_Rotatable_Bonds:                  13
##########                         Heavy_Atoms:                  28
##########                    Molecular_Weight:             409.423
##########                DOCK_Rotatable_Bonds:                  13
##########                       Formal_Charge:          -0.0100008
##########                     HBond_Acceptors:                  12
##########                        HBond_Donors:                   4
##########                         Heavy_Atoms:                  28
##########                          Grid_Score:          -37.012341
##########                     Grid_vdw_energy:          -34.600327
##########                      Grid_es_energy:           -2.412013
##########           Internal_energy_repulsive:            6.456168

@<TRIPOS>MOLECULE
ZINC000770814339
 47 48 1 0 0
SMALL
USER_CHARGES


@<TRIPOS>ATOM
      1 C1        -11.4903   -2.2107   57.2463 C.3     1  ZINC000770814339   -0.1500
      2 C2        -10.4088   -1.7041   58.2028 C.3     1  ZINC000770814339    0.0600
      3 O3         -9.7287   -0.5683   57.6063 O.3     1  ZINC000770814339   -0.3500
      4 C4         -8.7408   -0.0060   58.3202 C.2     1  ZINC000770814339    0.4700
      5 O5         -8.4857   -0.4174   59.4272 O.2     1  ZINC000770814339   -0.4800
      6 C6         -7.9500    1.1387   57.7410 C.3     1  ZINC000770814339    0.0700
      7 O7         -7.8674    0.9907   56.3220 O.3     1  ZINC000770814339   -0.1800
      8 N8         -7.1900    2.0501   55.6710 N.2     1  ZINC000770814339   -0.2800
      9 C9         -7.0344    2.0265   54.3774 C.2     1  ZINC000770814339    0.1800
     10 C10        -6.3270    3.1361   53.6957 C.2     1  ZINC000770814339    0.5900
     11 O11        -6.6622    4.2862   53.8991 O.2     1  ZINC000770814339   -0.5100
     12 N12        -5.3120    2.8695   52.8501 N.am    1  ZINC000770814339   -0.7000
     13 C13        -4.6116    3.9665   52.1776 C.3     1  ZINC000770814339    0.1500
     14 C14        -3.3465    3.4433   51.5475 C.ar    1  ZINC000770814339   -0.0600
     15 C15        -3.4005    2.7814   50.3351 C.ar    1  ZINC000770814339   -0.1200
     16 C16        -2.2400    2.3016   49.7573 C.ar    1  ZINC000770814339   -0.0200
     17 C17        -1.0254    2.4842   50.3915 C.ar    1  ZINC000770814339   -0.6700
     18 S18         0.4537    1.8721   49.6551 S.o2    1  ZINC000770814339    2.7000
     19 N19         1.1805    0.8816   50.7654 N.am    1  ZINC000770814339   -1.2500
     20 O20         0.0502    1.0387   48.5772 O.2     1  ZINC000770814339   -0.9600
     21 O21         1.3138    2.9915   49.4922 O.2     1  ZINC000770814339   -0.9600
     22 C22        -0.9711    3.1474   51.6031 C.ar    1  ZINC000770814339   -0.0200
     23 C23        -2.1312    3.6305   52.1791 C.ar    1  ZINC000770814339   -0.1200
     24 C24        -7.5631    0.8943   53.5908 C.2     1  ZINC000770814339    0.0600
     25 C25        -8.8438    0.3876   53.6441 C.2     1  ZINC000770814339   -0.2000
     26 C26        -8.9171   -0.6730   52.7423 C.2     1  ZINC000770814339    0.0400
     27 N27        -7.7508   -0.8144   52.1649 N.2     1  ZINC000770814339   -0.2600
     28 N28        -6.8775    0.1567   52.6701 N.pl3   1  ZINC000770814339   -0.4400
     29 H29       -12.0008   -3.0634   57.6940 H       1  ZINC000770814339    0.0800
     30 H30       -12.2101   -1.4144   57.0573 H       1  ZINC000770814339    0.0700
     31 H31       -11.0303   -2.5153   56.3062 H       1  ZINC000770814339    0.0700
     32 H32       -10.8688   -1.3996   59.1428 H       1  ZINC000770814339    0.0700
     33 H33        -9.6889   -2.5005   58.3917 H       1  ZINC000770814339    0.0700
     34 H34        -8.4451    2.0799   57.9799 H       1  ZINC000770814339    0.1100
     35 H35        -6.9461    1.1382   58.1653 H       1  ZINC000770814339    0.1100
     36 H36        -5.0452    1.9513   52.6868 H       1  ZINC000770814339    0.4100
     37 H37        -5.2545    4.3886   51.4052 H       1  ZINC000770814339    0.0900
     38 H38        -4.3625    4.7388   52.9053 H       1  ZINC000770814339    0.0900
     39 H39        -4.3495    2.6387   49.8397 H       1  ZINC000770814339    0.1400
     40 H40        -2.2825    1.7838   48.8105 H       1  ZINC000770814339    0.1500
     41 H41         2.0174    0.4417   50.5485 H       1  ZINC000770814339    0.4200
     42 H42         0.7694    0.7413   51.6327 H       1  ZINC000770814339    0.4200
     43 H43        -0.0221    3.2904   52.0984 H       1  ZINC000770814339    0.1500
     44 H44        -2.0888    4.1487   53.1258 H       1  ZINC000770814339    0.1400
     45 H45        -9.6459    0.7471   54.2716 H       1  ZINC000770814339    0.1700
     46 H46        -9.7913   -1.2780   52.5518 H       1  ZINC000770814339    0.1900
     47 H47        -5.9496    0.2794   52.4155 H       1  ZINC000770814339    0.4500
@<TRIPOS>BOND
     1     1     2    1
     2     1    29    1
     3     1    30    1
     4     1    31    1
     5     2     3    1
     6     2    32    1
     7     2    33    1
     8     3     4    1
     9     4     5    2
    10     4     6    1
    11     6     7    1
    12     6    34    1
    13     6    35    1
    14     7     8    1
    15     8     9    2
    16     9    10    1
    17     9    24    1
    18    10    11    2
    19    10    12   am
    20    12    13    1
    21    12    36    1
    22    13    14    1
    23    13    37    1
    24    13    38    1
    25    14    23   ar
    26    14    15   ar
    27    15    16   ar
    28    15    39    1
    29    16    17   ar
    30    16    40    1
    31    17    18    1
    32    17    22   ar
    33    18    19   am
    34    18    20    2
    35    18    21    2
    36    19    41    1
    37    19    42    1
    38    22    23   ar
    39    22    43    1
    40    23    44    1
    41    24    28    1
    42    24    25    2
    43    25    26    1
    44    25    45    1
    45    26    27    2
    46    26    46    1
    47    27    28    1
    48    28    47    1
@<TRIPOS>SUBSTRUCTURE
     1 ZINC000770814339        1 TEMP              0 ****  ****    0 ROOT


##########                                Name:    ZINC001591898574
##########                DOCK_Rotatable_Bonds:                  10
##########                         Heavy_Atoms:                  26
##########                    Molecular_Weight:             383.434
##########                DOCK_Rotatable_Bonds:                  10
##########                       Formal_Charge:         5.96046e-08
##########                     HBond_Acceptors:                  13
##########                        HBond_Donors:                   3
##########                         Heavy_Atoms:                  26
##########                          Grid_Score:          -36.902580
##########                     Grid_vdw_energy:          -34.761646
##########                      Grid_es_energy:           -2.140932
##########           Internal_energy_repulsive:           10.006485

@<TRIPOS>MOLECULE
ZINC001591898574
 47 48 1 0 0
SMALL
USER_CHARGES


@<TRIPOS>ATOM
      1 C1         -5.6983    1.7134   51.7457 C.3     1  ZINC001591898574   -0.1100
      2 C2         -4.3173    2.2831   51.9446 C.ar    1  ZINC001591898574    0.2300
      3 C3         -3.3036    1.9882   51.0503 C.ar    1  ZINC001591898574   -0.2400
      4 C4         -2.0389    2.5381   51.2728 C.ar    1  ZINC001591898574    0.3000
      5 C5         -0.9188    2.2522   50.3422 C.2     1  ZINC001591898574    0.2100
      6 N6         -0.9990    1.6370   49.1789 N.2     1  ZINC001591898574   -0.2500
      7 N7          0.1871    1.5854   48.6776 N.pl3   1  ZINC001591898574   -0.2200
      8 N8          1.0161    2.1481   49.4858 N.2     1  ZINC001591898574   -0.0400
      9 N9          0.3706    2.5745   50.5181 N.2     1  ZINC001591898574   -0.2500
     10 N10        -1.8539    3.3225   52.3316 N.ar    1  ZINC001591898574   -0.5500
     11 C11        -2.8516    3.5794   53.1629 C.ar    1  ZINC001591898574    0.5800
     12 N12        -2.6253    4.3995   54.2548 N.pl3   1  ZINC001591898574   -0.7000
     13 C13        -3.0777    3.9880   55.5861 C.3     1  ZINC001591898574    0.1400
     14 C14        -1.9675    3.1958   56.2796 C.3     1  ZINC001591898574   -0.1500
     15 C15        -2.4737    2.6833   57.6295 C.3     1  ZINC001591898574    0.1200
     16 N16        -1.3877    1.9908   58.3273 N.am    1  ZINC001591898574   -0.7300
     17 C17        -0.4922    2.6953   59.0475 C.2     1  ZINC001591898574    0.4900
     18 O18        -0.5866    3.9023   59.1190 O.2     1  ZINC001591898574   -0.5300
     19 C19         0.6261    1.9831   59.7638 C.3     1  ZINC001591898574    0.1000
     20 N20         0.2484    1.7635   61.1622 N.am    1  ZINC001591898574   -0.9800
     21 C21        -0.5545    2.7637   61.8699 C.3     1  ZINC001591898574    0.1000
     22 S22         0.7293    0.3845   61.9430 S.o2    1  ZINC001591898574    2.6100
     23 C23        -0.0026   -0.9630   60.9739 C.3     1  ZINC001591898574   -0.6600
     24 O24         2.1442    0.3822   61.8109 O.2     1  ZINC001591898574   -0.9500
     25 O25         0.1129    0.4719   63.2204 O.2     1  ZINC001591898574   -0.9600
     26 N26        -4.0625    3.0756   52.9738 N.ar    1  ZINC001591898574   -0.5600
     27 H27        -6.2871    2.3943   51.1312 H       1  ZINC001591898574    0.0900
     28 H28        -5.6242    0.7465   51.2479 H       1  ZINC001591898574    0.0900
     29 H29        -6.1823    1.5873   52.7142 H       1  ZINC001591898574    0.0900
     30 H30        -3.4858    1.3473   50.2003 H       1  ZINC001591898574    0.1600
     31 H31         0.4189    1.1852   47.8250 H       1  ZINC001591898574    0.4800
     32 H32        -2.1672    5.2465   54.1385 H       1  ZINC001591898574    0.4200
     33 H33        -3.3173    4.8718   56.1775 H       1  ZINC001591898574    0.0700
     34 H34        -3.9654    3.3628   55.4911 H       1  ZINC001591898574    0.0700
     35 H35        -1.6797    2.3504   55.6548 H       1  ZINC001591898574    0.0800
     36 H36        -1.1040    3.8420   56.4371 H       1  ZINC001591898574    0.0800
     37 H37        -2.8151    3.5245   58.2328 H       1  ZINC001591898574    0.0700
     38 H38        -3.3012    1.9921   57.4686 H       1  ZINC001591898574    0.0700
     39 H39        -1.3129    1.0254   58.2712 H       1  ZINC001591898574    0.4000
     40 H40         0.8124    1.0229   59.2828 H       1  ZINC001591898574    0.1200
     41 H41         1.5295    2.5914   59.7227 H       1  ZINC001591898574    0.1300
     42 H42        -1.6130    2.5388   61.7391 H       1  ZINC001591898574    0.0600
     43 H43        -0.3073    2.7435   62.9313 H       1  ZINC001591898574    0.0700
     44 H44        -0.3408    3.7533   61.4659 H       1  ZINC001591898574    0.0700
     45 H45         0.3740   -0.9216   59.9519 H       1  ZINC001591898574    0.1300
     46 H46         0.2658   -1.9199   61.4217 H       1  ZINC001591898574    0.1200
     47 H47        -1.0874   -0.8572   60.9659 H       1  ZINC001591898574    0.1300
@<TRIPOS>BOND
     1     1     2    1
     2     1    27    1
     3     1    28    1
     4     1    29    1
     5     2    26   ar
     6     2     3   ar
     7     3     4   ar
     8     3    30    1
     9     4     5    1
    10     4    10   ar
    11     5     9    1
    12     5     6    2
    13     6     7    1
    14     7     8    1
    15     7    31    1
    16     8     9    2
    17    10    11   ar
    18    11    12    1
    19    11    26   ar
    20    12    13    1
    21    12    32    1
    22    13    14    1
    23    13    33    1
    24    13    34    1
    25    14    15    1
    26    14    35    1
    27    14    36    1
    28    15    16    1
    29    15    37    1
    30    15    38    1
    31    16    17   am
    32    16    39    1
    33    17    18    2
    34    17    19    1
    35    19    20    1
    36    19    40    1
    37    19    41    1
    38    20    21    1
    39    20    22   am
    40    21    42    1
    41    21    43    1
    42    21    44    1
    43    22    23    1
    44    22    24    2
    45    22    25    2
    46    23    45    1
    47    23    46    1
    48    23    47    1
@<TRIPOS>SUBSTRUCTURE
     1 ZINC001591898574        1 TEMP              0 ****  ****    0 ROOT


##########                                Name:    ZINC000489986384
##########                DOCK_Rotatable_Bonds:                  11
##########                         Heavy_Atoms:                  31
##########                    Molecular_Weight:             415.492
##########                DOCK_Rotatable_Bonds:                  11
##########                       Formal_Charge:          -0.0499997
##########                     HBond_Acceptors:                   6
##########                        HBond_Donors:                   2
##########                         Heavy_Atoms:                  31
##########                          Grid_Score:          -36.900780
##########                     Grid_vdw_energy:          -38.481956
##########                      Grid_es_energy:            1.581178
##########           Internal_energy_repulsive:           18.231556

@<TRIPOS>MOLECULE
ZINC000489986384
 56 59 1 0 0
SMALL
USER_CHARGES


@<TRIPOS>ATOM
      1 O1         -0.2264    3.5514   54.0916 O.2     1  ZINC000489986384   -0.5000
      2 C2         -1.4335    3.5344   53.9757 C.2     1  ZINC000489986384    0.4900
      3 C3         -2.0868    4.2087   52.7969 C.3     1  ZINC000489986384    0.0900
      4 N4         -2.0204    3.3251   51.6303 N.pl3   1  ZINC000489986384   -0.4700
      5 C5         -0.8849    2.9940   50.9181 C.ar    1  ZINC000489986384    0.0700
      6 C6          0.4567    3.3327   51.0258 C.ar    1  ZINC000489986384   -0.1100
      7 C7          1.3660    2.8157   50.1271 C.ar    1  ZINC000489986384   -0.0900
      8 C8          0.9482    1.9609   49.1174 C.ar    1  ZINC000489986384   -0.1300
      9 C9         -0.3685    1.6169   48.9957 C.ar    1  ZINC000489986384   -0.0600
     10 C10        -1.3074    2.1277   49.8953 C.ar    1  ZINC000489986384    0.0500
     11 N11        -2.6500    1.9786   50.0331 N.2     1  ZINC000489986384   -0.4600
     12 C12        -3.0651    2.6738   51.0515 C.2     1  ZINC000489986384    0.2800
     13 C13        -4.4967    2.7551   51.5154 C.3     1  ZINC000489986384    0.1400
     14 O14        -5.2184    1.6192   51.0348 O.3     1  ZINC000489986384   -0.3000
     15 C15        -6.3556    1.2845   51.6992 C.ar    1  ZINC000489986384    0.1300
     16 C16        -6.7329   -0.0464   51.8041 C.ar    1  ZINC000489986384   -0.2100
     17 C17        -7.8892   -0.3840   52.4804 C.ar    1  ZINC000489986384   -0.0800
     18 C18        -8.6705    0.6031   53.0521 C.ar    1  ZINC000489986384   -0.1600
     19 C19        -8.2969    1.9303   52.9486 C.ar    1  ZINC000489986384   -0.0800
     20 C20        -7.1383    2.2727   52.2785 C.ar    1  ZINC000489986384   -0.1500
     21 N21        -2.1904    2.9078   54.8981 N.am    1  ZINC000489986384   -0.7300
     22 C22        -1.5554    2.2523   56.0440 C.3     1  ZINC000489986384    0.1300
     23 C23        -1.1834    3.3038   57.0913 C.3     1  ZINC000489986384   -0.0600
     24 H24        -0.6727    4.1355   56.6058 H       1  ZINC000489986384    0.0900
     25 C25        -2.4534    3.8143   57.7748 C.3     1  ZINC000489986384    0.0800
     26 O26        -2.1019    4.7535   58.7929 O.3     1  ZINC000489986384   -0.5700
     27 C27        -0.2721    2.6869   58.1209 C.ar    1  ZINC000489986384   -0.0700
     28 C28         1.0829    2.5805   57.8694 C.ar    1  ZINC000489986384   -0.1100
     29 C29         1.9189    2.0146   58.8139 C.ar    1  ZINC000489986384   -0.1200
     30 C30         1.3997    1.5555   60.0100 C.ar    1  ZINC000489986384   -0.1200
     31 C31         0.0447    1.6627   60.2618 C.ar    1  ZINC000489986384   -0.1200
     32 C32        -0.7906    2.2325   59.3192 C.ar    1  ZINC000489986384   -0.1100
     33 H33        -3.1296    4.4220   53.0321 H       1  ZINC000489986384    0.1200
     34 H34        -1.5661    5.1407   52.5768 H       1  ZINC000489986384    0.1200
     35 H35         0.7871    3.9982   51.8096 H       1  ZINC000489986384    0.1200
     36 H36         2.4102    3.0784   50.2096 H       1  ZINC000489986384    0.1300
     37 H37         1.6711    1.5637   48.4201 H       1  ZINC000489986384    0.1300
     38 H38        -0.6830    0.9513   48.2055 H       1  ZINC000489986384    0.1300
     39 H39        -4.5253    2.7695   52.6049 H       1  ZINC000489986384    0.0800
     40 H40        -4.9530    3.6660   51.1279 H       1  ZINC000489986384    0.1000
     41 H41        -6.1234   -0.8178   51.3571 H       1  ZINC000489986384    0.1300
     42 H42        -8.1834   -1.4200   52.5624 H       1  ZINC000489986384    0.1300
     43 H43        -9.5743    0.3370   53.5802 H       1  ZINC000489986384    0.1200
     44 H44        -8.9090    2.6996   53.3958 H       1  ZINC000489986384    0.1300
     45 H45        -6.8469    3.3095   52.1980 H       1  ZINC000489986384    0.1300
     46 H46        -3.1556    2.8909   54.8032 H       1  ZINC000489986384    0.4000
     47 H47        -2.2481    1.5333   56.4812 H       1  ZINC000489986384    0.0800
     48 H48        -0.6549    1.7345   55.7134 H       1  ZINC000489986384    0.0800
     49 H49        -3.0927    4.3000   57.0376 H       1  ZINC000489986384    0.0500
     50 H50        -2.9873    2.9761   58.2225 H       1  ZINC000489986384    0.0500
     51 H51        -1.5344    4.3886   59.4857 H       1  ZINC000489986384    0.3800
     52 H52         1.4885    2.9392   56.9350 H       1  ZINC000489986384    0.1200
     53 H53         2.9774    1.9309   58.6171 H       1  ZINC000489986384    0.1200
     54 H54         2.0527    1.1128   60.7476 H       1  ZINC000489986384    0.1200
     55 H55        -0.3609    1.3038   61.1962 H       1  ZINC000489986384    0.1200
     56 H56        -1.8492    2.3163   59.5159 H       1  ZINC000489986384    0.1200
@<TRIPOS>BOND
     1     1     2    2
     2     2     3    1
     3     2    21   am
     4     3     4    1
     5     3    33    1
     6     3    34    1
     7     4    12    1
     8     4     5    1
     9     5    10   ar
    10     5     6   ar
    11     6     7   ar
    12     6    35    1
    13     7     8   ar
    14     7    36    1
    15     8     9   ar
    16     8    37    1
    17     9    10   ar
    18     9    38    1
    19    10    11    1
    20    11    12    2
    21    12    13    1
    22    13    14    1
    23    13    39    1
    24    13    40    1
    25    14    15    1
    26    15    20   ar
    27    15    16   ar
    28    16    17   ar
    29    16    41    1
    30    17    18   ar
    31    17    42    1
    32    18    19   ar
    33    18    43    1
    34    19    20   ar
    35    19    44    1
    36    20    45    1
    37    21    22    1
    38    21    46    1
    39    22    23    1
    40    22    47    1
    41    22    48    1
    42    23    24    1
    43    23    25    1
    44    23    27    1
    45    25    26    1
    46    25    49    1
    47    25    50    1
    48    26    51    1
    49    27    32   ar
    50    27    28   ar
    51    28    29   ar
    52    28    52    1
    53    29    30   ar
    54    29    53    1
    55    30    31   ar
    56    30    54    1
    57    31    32   ar
    58    31    55    1
    59    32    56    1
@<TRIPOS>SUBSTRUCTURE
     1 ZINC000489986384        1 TEMP              0 ****  ****    0 ROOT


##########                                Name:    ZINC000767361237
##########                DOCK_Rotatable_Bonds:                  10
##########                         Heavy_Atoms:                  30
##########                    Molecular_Weight:             409.439
##########                DOCK_Rotatable_Bonds:                  10
##########                       Formal_Charge:          -0.0300005
##########                     HBond_Acceptors:                   7
##########                        HBond_Donors:                   1
##########                         Heavy_Atoms:                  30
##########                          Grid_Score:          -36.725483
##########                     Grid_vdw_energy:          -35.205261
##########                      Grid_es_energy:           -1.520222
##########           Internal_energy_repulsive:           10.183359

@<TRIPOS>MOLECULE
ZINC000767361237
 53 55 1 0 0
SMALL
USER_CHARGES


@<TRIPOS>ATOM
      1 C1         -8.6464   -0.0219   66.0083 C.3     1  ZINC000767361237   -0.1200
      2 C2         -8.7365    0.3665   64.5550 C.ar    1  ZINC000767361237   -0.0900
      3 C3         -8.0563    1.4777   64.0931 C.ar    1  ZINC000767361237   -0.1200
      4 C4         -8.1390    1.8340   62.7600 C.ar    1  ZINC000767361237   -0.1100
      5 C5         -8.9016    1.0789   61.8887 C.ar    1  ZINC000767361237   -0.0800
      6 C6         -8.9921    1.4676   60.4356 C.3     1  ZINC000767361237   -0.0800
      7 H7         -8.3522    2.3301   60.2497 H       1  ZINC000767361237    0.0900
      8 C8        -10.4400    1.8234   60.0922 C.3     1  ZINC000767361237   -0.1500
      9 C9         -8.5346    0.2958   59.5647 C.3     1  ZINC000767361237    0.1300
     10 H10        -9.4001   -0.2980   59.2707 H       1  ZINC000767361237    0.1400
     11 O11        -7.6256   -0.5213   60.3049 O.3     1  ZINC000767361237   -0.5200
     12 C12        -7.8461    0.8244   58.3328 C.2     1  ZINC000767361237    0.4300
     13 O13        -6.6869    1.1610   58.3861 O.2     1  ZINC000767361237   -0.5000
     14 O14        -8.5206    0.9211   57.1763 O.3     1  ZINC000767361237   -0.3300
     15 C15        -7.8126    1.4959   56.0464 C.3     1  ZINC000767361237    0.0100
     16 C16        -8.4989    1.0938   54.7663 C.2     1  ZINC000767361237    0.3700
     17 O17        -9.6562    0.7494   54.7842 O.2     1  ZINC000767361237   -0.4200
     18 C18        -7.7409    1.1215   53.4642 C.3     1  ZINC000767361237   -0.1800
     19 C19        -7.4132    2.5699   53.0956 C.3     1  ZINC000767361237    0.1200
     20 N20        -5.9962    2.6742   52.7385 N.am    1  ZINC000767361237   -0.5800
     21 C21        -5.4390    2.0974   51.6585 C.2     1  ZINC000767361237    0.5700
     22 O22        -6.0218    1.4181   50.8377 O.2     1  ZINC000767361237   -0.4600
     23 C23        -3.9987    2.4294   51.6376 C.ar    1  ZINC000767361237   -0.1400
     24 C24        -2.9474    2.1230   50.7891 C.ar    1  ZINC000767361237   -0.0400
     25 C25        -1.6781    2.6084   51.0644 C.ar    1  ZINC000767361237   -0.0900
     26 C26        -1.4553    3.3949   52.1785 C.ar    1  ZINC000767361237   -0.0900
     27 C27        -2.4979    3.7097   53.0366 C.ar    1  ZINC000767361237   -0.0400
     28 C28        -3.7714    3.2318   52.7743 C.ar    1  ZINC000767361237   -0.1400
     29 C29        -5.0822    3.3642   53.4444 C.2     1  ZINC000767361237    0.5700
     30 O30        -5.2977    3.9897   54.4629 O.2     1  ZINC000767361237   -0.4600
     31 C31        -9.5807   -0.0331   62.3504 C.ar    1  ZINC000767361237   -0.1100
     32 C32        -9.4949   -0.3916   63.6827 C.ar    1  ZINC000767361237   -0.1200
     33 H33        -7.8040   -0.6986   66.1520 H       1  ZINC000767361237    0.0700
     34 H34        -8.5018    0.8720   66.6151 H       1  ZINC000767361237    0.0700
     35 H35        -9.5680   -0.5201   66.3091 H       1  ZINC000767361237    0.0700
     36 H36        -7.4605    2.0677   64.7738 H       1  ZINC000767361237    0.1200
     37 H37        -7.6081    2.7026   62.3993 H       1  ZINC000767361237    0.1200
     38 H38       -10.5055    2.1046   59.0411 H       1  ZINC000767361237    0.0800
     39 H39       -11.0801    0.9609   60.2781 H       1  ZINC000767361237    0.0700
     40 H40       -10.7660    2.6582   60.7126 H       1  ZINC000767361237    0.0600
     41 H41        -7.1711   -1.1872   59.7710 H       1  ZINC000767361237    0.3900
     42 H42        -7.8121    2.5825   56.1326 H       1  ZINC000767361237    0.1100
     43 H43        -6.7854    1.1315   56.0378 H       1  ZINC000767361237    0.1100
     44 H44        -6.8155    0.5554   53.5704 H       1  ZINC000767361237    0.1100
     45 H45        -8.3514    0.6760   52.6788 H       1  ZINC000767361237    0.1100
     46 H46        -8.0251    2.8763   52.2473 H       1  ZINC000767361237    0.1100
     47 H47        -7.6219    3.2176   53.9470 H       1  ZINC000767361237    0.1100
     48 H48        -3.1158    1.5084   49.9171 H       1  ZINC000767361237    0.1400
     49 H49        -0.8579    2.3698   50.4036 H       1  ZINC000767361237    0.1400
     50 H50        -0.4621    3.7668   52.3824 H       1  ZINC000767361237    0.1400
     51 H51        -2.3180    4.3252   53.9057 H       1  ZINC000767361237    0.1400
     52 H52       -10.1762   -0.6233   61.6696 H       1  ZINC000767361237    0.1200
     53 H53       -10.0255   -1.2604   64.0434 H       1  ZINC000767361237    0.1200
@<TRIPOS>BOND
     1     1     2    1
     2     1    33    1
     3     1    34    1
     4     1    35    1
     5     2    32   ar
     6     2     3   ar
     7     3     4   ar
     8     3    36    1
     9     4     5   ar
    10     4    37    1
    11     5     6    1
    12     5    31   ar
    13     6     7    1
    14     6     8    1
    15     6     9    1
    16     8    38    1
    17     8    39    1
    18     8    40    1
    19     9    10    1
    20     9    11    1
    21     9    12    1
    22    11    41    1
    23    12    13    2
    24    12    14    1
    25    14    15    1
    26    15    16    1
    27    15    42    1
    28    15    43    1
    29    16    17    2
    30    16    18    1
    31    18    19    1
    32    18    44    1
    33    18    45    1
    34    19    20    1
    35    19    46    1
    36    19    47    1
    37    20    29   am
    38    20    21   am
    39    21    22    2
    40    21    23    1
    41    23    28   ar
    42    23    24   ar
    43    24    25   ar
    44    24    48    1
    45    25    26   ar
    46    25    49    1
    47    26    27   ar
    48    26    50    1
    49    27    28   ar
    50    27    51    1
    51    28    29    1
    52    29    30    2
    53    31    32   ar
    54    31    52    1
    55    32    53    1
@<TRIPOS>SUBSTRUCTURE
     1 ZINC000767361237        1 TEMP              0 ****  ****    0 ROOT


##########                                Name:    ZINC000474251633
##########                DOCK_Rotatable_Bonds:                   8
##########                         Heavy_Atoms:                  28
##########                    Molecular_Weight:             416.931
##########                DOCK_Rotatable_Bonds:                   8
##########                       Formal_Charge:          0.00999953
##########                     HBond_Acceptors:                   8
##########                        HBond_Donors:                   2
##########                         Heavy_Atoms:                  28
##########                          Grid_Score:          -36.609314
##########                     Grid_vdw_energy:          -34.566685
##########                      Grid_es_energy:           -2.042631
##########           Internal_energy_repulsive:            8.962775

@<TRIPOS>MOLECULE
ZINC000474251633
 49 52 1 0 0
SMALL
USER_CHARGES


@<TRIPOS>ATOM
      1 O1         -9.1239    2.9510   55.3361 O.2     1  ZINC000474251633   -0.5300
      2 C2         -8.2079    2.2617   54.9401 C.2     1  ZINC000474251633    0.5100
      3 C3         -8.1514    1.8421   53.4938 C.3     1  ZINC000474251633    0.1000
      4 N4         -6.7544    1.7842   53.0563 N.am    1  ZINC000474251633   -0.7100
      5 C5         -6.3007    2.6549   52.1331 C.2     1  ZINC000474251633    0.5900
      6 O6         -7.0508    3.4900   51.6640 O.2     1  ZINC000474251633   -0.5000
      7 C7         -4.9010    2.5956   51.6934 C.2     1  ZINC000474251633   -0.2300
      8 C8         -3.8784    3.1806   52.3283 C.2     1  ZINC000474251633    0.0400
      9 Cl9        -4.0967    4.1008   53.7842 Cl      1  ZINC000474251633   -0.0100
     10 C10        -2.6158    2.9998   51.7379 C.ar    1  ZINC000474251633   -0.0900
     11 C11        -1.3581    3.4871   52.1654 C.ar    1  ZINC000474251633   -0.0600
     12 C12        -0.2322    3.2063   51.4568 C.ar    1  ZINC000474251633   -0.1200
     13 C13        -0.2948    2.4370   50.3017 C.ar    1  ZINC000474251633   -0.0800
     14 C14        -1.5017    1.9498   49.8607 C.ar    1  ZINC000474251633   -0.0900
     15 C15        -2.6737    2.2247   50.5728 C.ar    1  ZINC000474251633   -0.1200
     16 S16        -4.3382    1.7418   50.2674 S.3     1  ZINC000474251633    0.1700
     17 N17        -7.2376    1.8757   55.7921 N.am    1  ZINC000474251633   -0.7200
     18 C18        -7.2926    2.2836   57.1981 C.3     1  ZINC000474251633    0.2100
     19 C19        -8.2039    1.3529   57.9559 C.2     1  ZINC000474251633    0.0500
     20 N20        -9.1231    0.5837   57.4315 N.2     1  ZINC000474251633   -0.2700
     21 N21        -9.7468   -0.1223   58.4683 N.pl3   1  ZINC000474251633   -0.3600
     22 C22       -10.8334   -1.0935   58.3179 C.3     1  ZINC000474251633    0.1500
     23 C23       -11.6533   -0.7769   57.0502 C.3     1  ZINC000474251633   -0.1400
     24 C24       -11.0437   -1.6972   55.9637 C.3     1  ZINC000474251633   -0.1300
     25 C25       -10.7431   -2.9988   56.7477 C.3     1  ZINC000474251633   -0.1200
     26 C26       -10.2546   -2.5063   58.1255 C.3     1  ZINC000474251633   -0.1400
     27 C27        -9.1700    0.2501   59.6300 C.2     1  ZINC000474251633    0.0600
     28 C28        -8.2088    1.1576   59.3410 C.2     1  ZINC000474251633   -0.2600
     29 H29        -8.6079    0.8585   53.3827 H       1  ZINC000474251633    0.1100
     30 H30        -8.6932    2.5651   52.8842 H       1  ZINC000474251633    0.1100
     31 H31        -6.1560    1.1191   53.4312 H       1  ZINC000474251633    0.4100
     32 H32        -1.2921    4.0868   53.0611 H       1  ZINC000474251633    0.1300
     33 H33         0.7207    3.5855   51.7953 H       1  ZINC000474251633    0.1400
     34 H34         0.6075    2.2217   49.7486 H       1  ZINC000474251633    0.1400
     35 H35        -1.5454    1.3527   48.9618 H       1  ZINC000474251633    0.1400
     36 H36        -6.5030    1.3277   55.4744 H       1  ZINC000474251633    0.4100
     37 H37        -6.2918    2.2420   57.6279 H       1  ZINC000474251633    0.0900
     38 H38        -7.6753    3.3020   57.2663 H       1  ZINC000474251633    0.0900
     39 H39       -11.4785   -1.0707   59.1961 H       1  ZINC000474251633    0.1100
     40 H40       -12.7052   -1.0161   57.2066 H       1  ZINC000474251633    0.0900
     41 H41       -11.5367    0.2707   56.7721 H       1  ZINC000474251633    0.0800
     42 H42       -11.7638   -1.8836   55.1669 H       1  ZINC000474251633    0.0800
     43 H43       -10.1259   -1.2667   55.5634 H       1  ZINC000474251633    0.0700
     44 H44       -11.6479   -3.5969   56.8552 H       1  ZINC000474251633    0.0700
     45 H45        -9.9622   -3.5728   56.2489 H       1  ZINC000474251633    0.0700
     46 H46        -9.1654   -2.4692   58.1441 H       1  ZINC000474251633    0.0700
     47 H47       -10.6195   -3.1692   58.9099 H       1  ZINC000474251633    0.0800
     48 H48        -9.4267   -0.1142   60.6139 H       1  ZINC000474251633    0.1700
     49 H49        -7.5636    1.6489   60.0542 H       1  ZINC000474251633    0.1500
@<TRIPOS>BOND
     1     1     2    2
     2     2     3    1
     3     2    17   am
     4     3     4    1
     5     3    29    1
     6     3    30    1
     7     4     5   am
     8     4    31    1
     9     5     6    2
    10     5     7    1
    11     7    16    1
    12     7     8    2
    13     8     9    1
    14     8    10    1
    15    10    15   ar
    16    10    11   ar
    17    11    12   ar
    18    11    32    1
    19    12    13   ar
    20    12    33    1
    21    13    14   ar
    22    13    34    1
    23    14    15   ar
    24    14    35    1
    25    15    16    1
    26    17    18    1
    27    17    36    1
    28    18    19    1
    29    18    37    1
    30    18    38    1
    31    19    28    1
    32    19    20    2
    33    20    21    1
    34    21    22    1
    35    21    27    1
    36    22    26    1
    37    22    23    1
    38    22    39    1
    39    23    24    1
    40    23    40    1
    41    23    41    1
    42    24    25    1
    43    24    42    1
    44    24    43    1
    45    25    26    1
    46    25    44    1
    47    25    45    1
    48    26    46    1
    49    26    47    1
    50    27    28    2
    51    27    48    1
    52    28    49    1
@<TRIPOS>SUBSTRUCTURE
     1 ZINC000474251633        1 TEMP              0 ****  ****    0 ROOT


##########                                Name:    ZINC000552360217
##########                DOCK_Rotatable_Bonds:                  13
##########                         Heavy_Atoms:                  27
##########                    Molecular_Weight:             401.484
##########                DOCK_Rotatable_Bonds:                  13
##########                       Formal_Charge:          -0.0100002
##########                     HBond_Acceptors:                  10
##########                        HBond_Donors:                   3
##########                         Heavy_Atoms:                  27
##########                          Grid_Score:          -36.513016
##########                     Grid_vdw_energy:          -35.241455
##########                      Grid_es_energy:           -1.271562
##########           Internal_energy_repulsive:           16.625561

@<TRIPOS>MOLECULE
ZINC000552360217
 54 54 1 0 0
SMALL
USER_CHARGES


@<TRIPOS>ATOM
      1 C1         -0.3744    2.6131   56.3913 C.3     1  ZINC000552360217    0.0800
      2 N2         -1.7338    3.1593   56.3895 N.am    1  ZINC000552360217   -1.0000
      3 C3         -2.7490    2.6001   57.2854 C.3     1  ZINC000552360217    0.0900
      4 S4         -2.1228    4.4089   55.3748 S.o2    1  ZINC000552360217    2.7000
      5 O5         -3.5250    4.6039   55.4977 O.2     1  ZINC000552360217   -0.9500
      6 O6         -1.1709    5.4353   55.6190 O.2     1  ZINC000552360217   -0.9500
      7 C7         -1.8406    3.8503   53.7277 C.ar    1  ZINC000552360217   -0.6900
      8 C8         -0.6038    4.0387   53.1373 C.ar    1  ZINC000552360217    0.0100
      9 C9         -0.3738    3.6027   51.8443 C.ar    1  ZINC000552360217   -0.1400
     10 C10        -1.3779    2.9767   51.1354 C.ar    1  ZINC000552360217   -0.0300
     11 C11        -2.6283    2.7835   51.7252 C.ar    1  ZINC000552360217   -0.1600
     12 C12        -3.7090    2.1129   50.9714 C.2     1  ZINC000552360217    0.5600
     13 O13        -3.6323    2.0078   49.7628 O.2     1  ZINC000552360217   -0.5300
     14 N14        -4.7793    1.6183   51.6242 N.am    1  ZINC000552360217   -0.7100
     15 C15        -5.8494    0.9523   50.8775 C.3     1  ZINC000552360217    0.1000
     16 C16        -6.8267    0.3340   51.8438 C.2     1  ZINC000552360217    0.5100
     17 O17        -6.8169   -0.8639   52.0330 O.2     1  ZINC000552360217   -0.5400
     18 N18        -7.7118    1.1123   52.4975 N.am    1  ZINC000552360217   -0.7200
     19 C19        -8.6608    0.5115   53.4381 C.3     1  ZINC000552360217    0.1400
     20 C20        -8.9460    1.4964   54.5736 C.3     1  ZINC000552360217    0.1000
     21 C21        -9.5232    2.7895   53.9941 C.3     1  ZINC000552360217   -0.1800
     22 C22        -9.9542    0.8779   55.5441 C.3     1  ZINC000552360217   -0.1800
     23 O23        -7.7318    1.7865   55.2689 O.3     1  ZINC000552360217   -0.3700
     24 C24        -7.8057    2.9374   56.1127 C.3     1  ZINC000552360217    0.0600
     25 C25        -6.6935    2.8733   57.1614 C.3     1  ZINC000552360217    0.0800
     26 O26        -6.8742    1.7139   57.9770 O.3     1  ZINC000552360217   -0.5700
     27 C27        -2.8520    3.2210   53.0314 C.ar    1  ZINC000552360217    0.0400
     28 H28        -0.3072    1.8033   55.6647 H       1  ZINC000552360217    0.0600
     29 H29         0.3332    3.3988   56.1261 H       1  ZINC000552360217    0.0900
     30 H30        -0.1376    2.2310   57.3843 H       1  ZINC000552360217    0.0800
     31 H31        -2.3109    1.7924   57.8719 H       1  ZINC000552360217    0.0800
     32 H32        -3.1120    3.3797   57.9550 H       1  ZINC000552360217    0.0700
     33 H33        -3.5796    2.2118   56.6959 H       1  ZINC000552360217    0.0600
     34 H34         0.1857    4.5286   53.6880 H       1  ZINC000552360217    0.1500
     35 H35         0.5940    3.7532   51.3891 H       1  ZINC000552360217    0.1400
     36 H36        -1.1972    2.6372   50.1262 H       1  ZINC000552360217    0.1400
     37 H37        -4.8412    1.7032   52.5885 H       1  ZINC000552360217    0.4100
     38 H38        -6.3667    1.6823   50.2548 H       1  ZINC000552360217    0.1000
     39 H39        -5.4215    0.1740   50.2456 H       1  ZINC000552360217    0.1000
     40 H40        -7.7204    2.0702   52.3452 H       1  ZINC000552360217    0.4100
     41 H41        -9.5896    0.2779   52.9178 H       1  ZINC000552360217    0.0800
     42 H42        -8.2346   -0.4036   53.8494 H       1  ZINC000552360217    0.0900
     43 H43       -10.4494    2.5683   53.4638 H       1  ZINC000552360217    0.0700
     44 H44        -9.7264    3.4913   54.8031 H       1  ZINC000552360217    0.0700
     45 H45        -8.8050    3.2302   53.3027 H       1  ZINC000552360217    0.0700
     46 H46        -9.5430   -0.0433   55.9570 H       1  ZINC000552360217    0.0600
     47 H47       -10.1574    1.5797   56.3531 H       1  ZINC000552360217    0.0700
     48 H48       -10.8804    0.6567   55.0138 H       1  ZINC000552360217    0.0700
     49 H49        -7.6857    3.8379   55.5103 H       1  ZINC000552360217    0.0600
     50 H50        -8.7746    2.9605   56.6116 H       1  ZINC000552360217    0.0700
     51 H51        -5.7261    2.8192   56.6622 H       1  ZINC000552360217    0.0600
     52 H52        -6.7309    3.7661   57.7855 H       1  ZINC000552360217    0.0500
     53 H53        -7.7272    1.6818   58.4315 H       1  ZINC000552360217    0.3800
     54 H54        -3.8172    3.0744   53.4934 H       1  ZINC000552360217    0.1500
@<TRIPOS>BOND
     1     1     2    1
     2     1    28    1
     3     1    29    1
     4     1    30    1
     5     2     3    1
     6     2     4   am
     7     3    31    1
     8     3    32    1
     9     3    33    1
    10     4     5    2
    11     4     6    2
    12     4     7    1
    13     7    27   ar
    14     7     8   ar
    15     8     9   ar
    16     8    34    1
    17     9    10   ar
    18     9    35    1
    19    10    11   ar
    20    10    36    1
    21    11    12    1
    22    11    27   ar
    23    12    13    2
    24    12    14   am
    25    14    15    1
    26    14    37    1
    27    15    16    1
    28    15    38    1
    29    15    39    1
    30    16    17    2
    31    16    18   am
    32    18    19    1
    33    18    40    1
    34    19    20    1
    35    19    41    1
    36    19    42    1
    37    20    21    1
    38    20    22    1
    39    20    23    1
    40    21    43    1
    41    21    44    1
    42    21    45    1
    43    22    46    1
    44    22    47    1
    45    22    48    1
    46    23    24    1
    47    24    25    1
    48    24    49    1
    49    24    50    1
    50    25    26    1
    51    25    51    1
    52    25    52    1
    53    26    53    1
    54    27    54    1
@<TRIPOS>SUBSTRUCTURE
     1 ZINC000552360217        1 TEMP              0 ****  ****    0 ROOT


##########                                Name:    ZINC000484900616
##########                DOCK_Rotatable_Bonds:                  10
##########                         Heavy_Atoms:                  29
##########                    Molecular_Weight:             415.556
##########                DOCK_Rotatable_Bonds:                  10
##########                       Formal_Charge:        -1.49012e-08
##########                     HBond_Acceptors:                   7
##########                        HBond_Donors:                   1
##########                         Heavy_Atoms:                  29
##########                          Grid_Score:          -36.221794
##########                     Grid_vdw_energy:          -34.602875
##########                      Grid_es_energy:           -1.618921
##########           Internal_energy_repulsive:           12.664656

@<TRIPOS>MOLECULE
ZINC000484900616
 58 60 1 0 0
SMALL
USER_CHARGES


@<TRIPOS>ATOM
      1 C1        -16.5973   -2.6929   59.0723 C.3     1  ZINC000484900616   -0.1500
      2 C2        -15.4174   -3.3625   59.7797 C.3     1  ZINC000484900616    0.0600
      3 O3        -14.3381   -2.4035   59.9340 O.3     1  ZINC000484900616   -0.3400
      4 C4        -14.4927   -1.4551   60.8794 C.2     1  ZINC000484900616    0.5500
      5 O5        -15.4904   -1.4460   61.5737 O.2     1  ZINC000484900616   -0.5000
      6 C6        -13.4539   -0.4312   61.0710 C.2     1  ZINC000484900616    0.0200
      7 C7        -13.6095    0.6372   61.8861 C.2     1  ZINC000484900616   -0.2400
      8 S8        -12.1862    1.5826   61.8340 S.3     1  ZINC000484900616    0.2900
      9 C9        -11.4661    0.4986   60.7283 C.2     1  ZINC000484900616    0.0300
     10 C10       -10.0828    0.6548   60.1509 C.3     1  ZINC000484900616    0.1500
     11 H11        -9.8314    1.7106   60.0502 H       1  ZINC000484900616    0.0900
     12 C12        -9.0414   -0.0648   61.0437 C.3     1  ZINC000484900616   -0.1200
     13 C13        -7.8972   -0.3383   60.0323 C.3     1  ZINC000484900616   -0.1400
     14 C14        -8.6555   -0.6371   58.7219 C.3     1  ZINC000484900616    0.0500
     15 N15        -9.9926   -0.0230   58.8400 N.3     1  ZINC000484900616   -0.5100
     16 C16       -10.2393    0.9171   57.7387 C.3     1  ZINC000484900616    0.0300
     17 C17       -10.1871    0.1783   56.4262 C.2     1  ZINC000484900616    0.5200
     18 O18       -10.7516   -0.8886   56.3081 O.2     1  ZINC000484900616   -0.5100
     19 N19        -9.5129    0.7031   55.3839 N.am    1  ZINC000484900616   -0.7300
     20 C20        -9.4636   -0.0144   54.1075 C.3     1  ZINC000484900616    0.1900
     21 H21        -9.3047   -1.0766   54.2936 H       1  ZINC000484900616    0.1000
     22 C22       -10.7852    0.1805   53.3616 C.3     1  ZINC000484900616   -0.1600
     23 C23        -8.3310    0.5241   53.2720 C.ar    1  ZINC000484900616   -0.1000
     24 C24        -8.0420    1.8759   53.2883 C.ar    1  ZINC000484900616   -0.1100
     25 C25        -7.0031    2.3699   52.5218 C.ar    1  ZINC000484900616   -0.1100
     26 C26        -6.2528    1.5121   51.7394 C.ar    1  ZINC000484900616   -0.0800
     27 C27        -5.1205    2.0507   50.9034 C.3     1  ZINC000484900616   -0.0900
     28 C28        -4.0691    2.6845   51.8166 C.3     1  ZINC000484900616   -0.1500
     29 C29        -6.5409    0.1602   51.7241 C.ar    1  ZINC000484900616   -0.1100
     30 C30        -7.5774   -0.3343   52.4936 C.ar    1  ZINC000484900616   -0.1000
     31 N31       -12.2661   -0.4723   60.4607 N.2     1  ZINC000484900616   -0.4300
     32 H32       -16.9446   -1.8473   59.6660 H       1  ZINC000484900616    0.0700
     33 H33       -16.2803   -2.3415   58.0903 H       1  ZINC000484900616    0.0700
     34 H34       -17.4076   -3.4128   58.9564 H       1  ZINC000484900616    0.0800
     35 H35       -15.7344   -3.7138   60.7616 H       1  ZINC000484900616    0.0700
     36 H36       -15.0701   -4.2081   59.1860 H       1  ZINC000484900616    0.0700
     37 H37       -14.4888    0.8569   62.4735 H       1  ZINC000484900616    0.1900
     38 H38        -8.7024    0.5856   61.8501 H       1  ZINC000484900616    0.0900
     39 H39        -9.4440   -0.9973   61.4393 H       1  ZINC000484900616    0.0800
     40 H40        -7.2643    0.5419   59.9192 H       1  ZINC000484900616    0.0700
     41 H41        -7.3074   -1.2012   60.3416 H       1  ZINC000484900616    0.0800
     42 H42        -8.1223   -0.2011   57.8772 H       1  ZINC000484900616    0.0600
     43 H43        -8.7516   -1.7144   58.5865 H       1  ZINC000484900616    0.0900
     44 H44       -11.2229    1.3706   57.8614 H       1  ZINC000484900616    0.1100
     45 H45        -9.4765    1.6958   57.7479 H       1  ZINC000484900616    0.0700
     46 H46        -9.0603    1.5557   55.4788 H       1  ZINC000484900616    0.4000
     47 H47       -10.7485   -0.3532   52.4119 H       1  ZINC000484900616    0.0700
     48 H48       -11.6044   -0.2091   53.9659 H       1  ZINC000484900616    0.0700
     49 H49       -10.9441    1.2427   53.1755 H       1  ZINC000484900616    0.0600
     50 H50        -8.6282    2.5460   53.8996 H       1  ZINC000484900616    0.1200
     51 H51        -6.7778    3.4261   52.5340 H       1  ZINC000484900616    0.1200
     52 H52        -4.6673    1.2366   50.3379 H       1  ZINC000484900616    0.0700
     53 H53        -5.5038    2.8029   50.2139 H       1  ZINC000484900616    0.0700
     54 H54        -4.5224    3.4987   52.3821 H       1  ZINC000484900616    0.0600
     55 H55        -3.6858    1.9325   52.5061 H       1  ZINC000484900616    0.0600
     56 H56        -3.2502    3.0741   51.2119 H       1  ZINC000484900616    0.0600
     57 H57        -5.9544   -0.5100   51.1131 H       1  ZINC000484900616    0.1200
     58 H58        -7.8024   -1.3906   52.4817 H       1  ZINC000484900616    0.1200
@<TRIPOS>BOND
     1     1     2    1
     2     1    32    1
     3     1    33    1
     4     1    34    1
     5     2     3    1
     6     2    35    1
     7     2    36    1
     8     3     4    1
     9     4     5    2
    10     4     6    1
    11     6    31    1
    12     6     7    2
    13     7     8    1
    14     7    37    1
    15     8     9    1
    16     9    10    1
    17     9    31    2
    18    10    11    1
    19    10    15    1
    20    10    12    1
    21    12    13    1
    22    12    38    1
    23    12    39    1
    24    13    14    1
    25    13    40    1
    26    13    41    1
    27    14    15    1
    28    14    42    1
    29    14    43    1
    30    15    16    1
    31    16    17    1
    32    16    44    1
    33    16    45    1
    34    17    18    2
    35    17    19   am
    36    19    20    1
    37    19    46    1
    38    20    21    1
    39    20    22    1
    40    20    23    1
    41    22    47    1
    42    22    48    1
    43    22    49    1
    44    23    30   ar
    45    23    24   ar
    46    24    25   ar
    47    24    50    1
    48    25    26   ar
    49    25    51    1
    50    26    27    1
    51    26    29   ar
    52    27    28    1
    53    27    52    1
    54    27    53    1
    55    28    54    1
    56    28    55    1
    57    28    56    1
    58    29    30   ar
    59    29    57    1
    60    30    58    1
@<TRIPOS>SUBSTRUCTURE
     1 ZINC000484900616        1 TEMP              0 ****  ****    0 ROOT


##########                                Name:    ZINC000770850676
##########                DOCK_Rotatable_Bonds:                  13
##########                         Heavy_Atoms:                  30
##########                    Molecular_Weight:             412.486
##########                DOCK_Rotatable_Bonds:                  13
##########                       Formal_Charge:          -0.0299994
##########                     HBond_Acceptors:                   7
##########                        HBond_Donors:                   3
##########                         Heavy_Atoms:                  30
##########                          Grid_Score:          -36.211937
##########                     Grid_vdw_energy:          -36.158276
##########                      Grid_es_energy:           -0.053662
##########           Internal_energy_repulsive:           16.489260

@<TRIPOS>MOLECULE
ZINC000770850676
 58 60 1 0 0
SMALL
USER_CHARGES


@<TRIPOS>ATOM
      1 O1         -8.4805    3.6712   54.6383 O.2     1  ZINC000770850676   -0.5300
      2 C2         -8.8381    2.5123   54.6529 C.2     1  ZINC000770850676    0.5100
      3 N3         -8.7515    1.7947   55.7904 N.am    1  ZINC000770850676   -0.7000
      4 C4         -8.2198    2.4126   57.0077 C.3     1  ZINC000770850676    0.1600
      5 H5         -8.3487    3.4936   56.9525 H       1  ZINC000770850676    0.1000
      6 C6         -6.7316    2.0826   57.1390 C.3     1  ZINC000770850676    0.0600
      7 O7         -5.9605    3.0896   56.4807 O.3     1  ZINC000770850676   -0.5700
      8 C8         -8.9717    1.8708   58.2251 C.3     1  ZINC000770850676   -0.1500
      9 C9         -8.8672    0.3447   58.2514 C.3     1  ZINC000770850676    0.1500
     10 H10        -8.8408   -0.0353   57.2302 H       1  ZINC000770850676    0.1100
     11 O11        -7.6717   -0.0393   58.9335 O.3     1  ZINC000770850676   -0.5400
     12 C12       -10.0615   -0.2283   58.9700 C.ar    1  ZINC000770850676   -0.1200
     13 C13       -10.5977    0.4354   60.0577 C.ar    1  ZINC000770850676   -0.1100
     14 C14       -11.6932   -0.0901   60.7168 C.ar    1  ZINC000770850676   -0.1200
     15 C15       -12.2529   -1.2791   60.2881 C.ar    1  ZINC000770850676   -0.1200
     16 C16       -11.7174   -1.9424   59.1998 C.ar    1  ZINC000770850676   -0.1200
     17 C17       -10.6245   -1.4146   58.5381 C.ar    1  ZINC000770850676   -0.1100
     18 C18        -9.3851    1.8767   53.4008 C.3     1  ZINC000770850676    0.1400
     19 H19        -9.3445    2.5881   52.5759 H       1  ZINC000770850676    0.1000
     20 C20       -10.8426    1.4266   53.6344 C.3     1  ZINC000770850676   -0.1200
     21 C21       -10.9178    0.0801   52.8670 C.3     1  ZINC000770850676   -0.1300
     22 C22        -9.5001   -0.4954   53.1094 C.3     1  ZINC000770850676    0.1000
     23 N23        -8.6029    0.6776   53.0660 N.am    1  ZINC000770850676   -0.5900
     24 C24        -7.2881    0.6505   52.7709 C.2     1  ZINC000770850676    0.6700
     25 O25        -6.7458   -0.4050   52.5095 O.2     1  ZINC000770850676   -0.5600
     26 O26        -6.5757    1.7929   52.7656 O.3     1  ZINC000770850676   -0.3600
     27 C27        -6.1704    2.3110   51.4711 C.3     1  ZINC000770850676    0.1300
     28 C28        -4.6770    2.5127   51.4561 C.ar    1  ZINC000770850676   -0.1000
     29 C29        -3.9365    2.1122   50.3596 C.ar    1  ZINC000770850676   -0.0900
     30 C30        -2.5667    2.2972   50.3458 C.ar    1  ZINC000770850676   -0.1200
     31 C31        -1.9374    2.8831   51.4282 C.ar    1  ZINC000770850676   -0.1100
     32 C32        -2.6780    3.2844   52.5243 C.ar    1  ZINC000770850676   -0.1200
     33 C33        -4.0484    3.1033   52.5363 C.ar    1  ZINC000770850676   -0.0900
     34 H34        -9.0412    0.8691   55.8032 H       1  ZINC000770850676    0.4000
     35 H35        -6.4589    2.0475   58.1938 H       1  ZINC000770850676    0.0500
     36 H36        -6.5323    1.1142   56.6798 H       1  ZINC000770850676    0.0500
     37 H37        -6.0808    3.9775   56.8442 H       1  ZINC000770850676    0.3800
     38 H38        -8.5332    2.2808   59.1349 H       1  ZINC000770850676    0.0800
     39 H39       -10.0202    2.1623   58.1638 H       1  ZINC000770850676    0.0900
     40 H40        -7.5793    0.3490   59.8143 H       1  ZINC000770850676    0.3700
     41 H41       -10.1604    1.3645   60.3926 H       1  ZINC000770850676    0.1200
     42 H42       -12.1116    0.4281   61.5670 H       1  ZINC000770850676    0.1200
     43 H43       -13.1084   -1.6901   60.8035 H       1  ZINC000770850676    0.1200
     44 H44       -12.1544   -2.8714   58.8651 H       1  ZINC000770850676    0.1200
     45 H45       -10.2060   -1.9328   57.6879 H       1  ZINC000770850676    0.1200
     46 H46       -11.0342    1.2763   54.6968 H       1  ZINC000770850676    0.0800
     47 H47       -11.5416    2.1496   53.2139 H       1  ZINC000770850676    0.1000
     48 H48       -11.6816   -0.5703   53.2932 H       1  ZINC000770850676    0.0900
     49 H49       -11.0960    0.2454   51.8045 H       1  ZINC000770850676    0.0800
     50 H50        -9.4484   -0.9783   54.0852 H       1  ZINC000770850676    0.0700
     51 H51        -9.2376   -1.2014   52.3215 H       1  ZINC000770850676    0.0900
     52 H52        -6.4490    1.6011   50.6923 H       1  ZINC000770850676    0.0800
     53 H53        -6.6676    3.2637   51.2891 H       1  ZINC000770850676    0.0800
     54 H54        -4.4282    1.6545   49.5139 H       1  ZINC000770850676    0.1200
     55 H55        -1.9880    1.9837   49.4894 H       1  ZINC000770850676    0.1300
     56 H56        -0.8670    3.0270   51.4177 H       1  ZINC000770850676    0.1300
     57 H57        -2.1863    3.7417   53.3701 H       1  ZINC000770850676    0.1300
     58 H58        -4.6270    3.4168   53.3926 H       1  ZINC000770850676    0.1200
@<TRIPOS>BOND
     1     1     2    2
     2     2     3   am
     3     2    18    1
     4     3     4    1
     5     3    34    1
     6     4     5    1
     7     4     6    1
     8     4     8    1
     9     6     7    1
    10     6    35    1
    11     6    36    1
    12     7    37    1
    13     8     9    1
    14     8    38    1
    15     8    39    1
    16     9    10    1
    17     9    11    1
    18     9    12    1
    19    11    40    1
    20    12    17   ar
    21    12    13   ar
    22    13    14   ar
    23    13    41    1
    24    14    15   ar
    25    14    42    1
    26    15    16   ar
    27    15    43    1
    28    16    17   ar
    29    16    44    1
    30    17    45    1
    31    18    19    1
    32    18    23    1
    33    18    20    1
    34    20    21    1
    35    20    46    1
    36    20    47    1
    37    21    22    1
    38    21    48    1
    39    21    49    1
    40    22    23    1
    41    22    50    1
    42    22    51    1
    43    23    24   am
    44    24    25    2
    45    24    26    1
    46    26    27    1
    47    27    28    1
    48    27    52    1
    49    27    53    1
    50    28    33   ar
    51    28    29   ar
    52    29    30   ar
    53    29    54    1
    54    30    31   ar
    55    30    55    1
    56    31    32   ar
    57    31    56    1
    58    32    33   ar
    59    32    57    1
    60    33    58    1
@<TRIPOS>SUBSTRUCTURE
     1 ZINC000770850676        1 TEMP              0 ****  ****    0 ROOT


##########                                Name:    ZINC000428266315
##########                DOCK_Rotatable_Bonds:                  10
##########                         Heavy_Atoms:                  30
##########                    Molecular_Weight:             423.438
##########                DOCK_Rotatable_Bonds:                  10
##########                       Formal_Charge:          0.00999977
##########                     HBond_Acceptors:                  10
##########                        HBond_Donors:                   0
##########                         Heavy_Atoms:                  30
##########                          Grid_Score:          -36.179283
##########                     Grid_vdw_energy:          -35.637051
##########                      Grid_es_energy:           -0.542234
##########           Internal_energy_repulsive:           18.871475

@<TRIPOS>MOLECULE
ZINC000428266315
 54 56 1 0 0
SMALL
USER_CHARGES


@<TRIPOS>ATOM
      1 C1        -14.7512   -4.0073   57.3463 C.3     1  ZINC000428266315   -0.1500
      2 C2        -13.3335   -3.5249   57.0322 C.3     1  ZINC000428266315    0.0600
      3 O3        -12.9405   -2.5432   57.9935 O.3     1  ZINC000428266315   -0.3700
      4 C4        -11.7022   -1.8973   57.6916 C.3     1  ZINC000428266315    0.1800
      5 H5        -11.4607   -1.1869   58.4823 H       1  ZINC000428266315    0.0900
      6 C6        -10.5917   -2.9450   57.5908 C.3     1  ZINC000428266315   -0.1700
      7 C7        -11.8237   -1.1663   56.3794 C.2     1  ZINC000428266315    0.1700
      8 N8        -12.8931   -0.5931   55.9145 N.2     1  ZINC000428266315   -0.3500
      9 O9        -12.6647   -0.0911   54.8342 O.3     1  ZINC000428266315    0.0800
     10 C10       -11.3890   -0.3027   54.4971 C.2     1  ZINC000428266315    0.1900
     11 C11       -10.7062    0.1568   53.2347 C.3     1  ZINC000428266315    0.1500
     12 N12        -9.7526    1.2273   53.5555 N.3     1  ZINC000428266315   -0.5300
     13 C13       -10.2843    2.1092   54.6031 C.3     1  ZINC000428266315    0.0200
     14 C14        -8.4498    0.6722   53.9457 C.3     1  ZINC000428266315    0.1400
     15 C15        -7.4911    0.7793   52.7878 C.2     1  ZINC000428266315   -0.2300
     16 C16        -7.0374    1.9273   52.2335 C.2     1  ZINC000428266315    0.0800
     17 N17        -6.2019    1.5959   51.2269 N.pl3   1  ZINC000428266315   -0.3700
     18 C18        -5.4857    2.5326   50.3575 C.3     1  ZINC000428266315    0.1700
     19 C19        -4.2019    2.9552   51.0240 C.ar    1  ZINC000428266315   -0.0800
     20 C20        -4.2274    3.8859   52.0457 C.ar    1  ZINC000428266315   -0.1000
     21 C21        -3.0498    4.2737   52.6571 C.ar    1  ZINC000428266315   -0.0700
     22 C22        -1.8467    3.7302   52.2471 C.ar    1  ZINC000428266315   -0.1700
     23 C23        -0.5628    4.1532   52.9133 C.3     1  ZINC000428266315    0.5100
     24 F24        -0.3988    5.5356   52.7744 F       1  ZINC000428266315   -0.1700
     25 F25        -0.6119    3.8237   54.2720 F       1  ZINC000428266315   -0.1800
     26 F26         0.5141    3.4931   52.3119 F       1  ZINC000428266315   -0.1800
     27 C27        -1.8213    2.7984   51.2263 C.ar    1  ZINC000428266315   -0.0700
     28 C28        -2.9994    2.4078   50.6175 C.ar    1  ZINC000428266315   -0.0800
     29 N29        -6.1403    0.1979   51.1603 N.2     1  ZINC000428266315   -0.2900
     30 C30        -6.9085   -0.2903   52.1001 C.2     1  ZINC000428266315    0.0600
     31 N31       -10.8435   -0.9824   55.4769 N.2     1  ZINC000428266315   -0.4600
     32 H32       -15.0510   -4.7560   56.6131 H       1  ZINC000428266315    0.0700
     33 H33       -14.7729   -4.4463   58.3437 H       1  ZINC000428266315    0.0600
     34 H34       -15.4395   -3.1632   57.3059 H       1  ZINC000428266315    0.0600
     35 H35       -12.6452   -4.3691   57.0726 H       1  ZINC000428266315    0.0500
     36 H36       -13.3119   -3.0858   56.0348 H       1  ZINC000428266315    0.0500
     37 H37       -10.8332   -3.6554   56.8003 H       1  ZINC000428266315    0.0700
     38 H38        -9.6472   -2.4523   57.3606 H       1  ZINC000428266315    0.0700
     39 H39       -10.5038   -3.4737   58.5400 H       1  ZINC000428266315    0.0700
     40 H40       -10.1739   -0.6808   52.7839 H       1  ZINC000428266315    0.0800
     41 H41       -11.4521    0.5326   52.5343 H       1  ZINC000428266315    0.1200
     42 H42       -10.4740    1.5280   55.5056 H       1  ZINC000428266315    0.0400
     43 H43        -9.5585    2.8926   54.8214 H       1  ZINC000428266315    0.0800
     44 H44       -11.2147    2.5613   54.2598 H       1  ZINC000428266315    0.0600
     45 H45        -8.0568    1.2304   54.7956 H       1  ZINC000428266315    0.0500
     46 H46        -8.5693   -0.3752   54.2228 H       1  ZINC000428266315    0.0900
     47 H47        -7.2973    2.9293   52.5415 H       1  ZINC000428266315    0.1700
     48 H48        -5.2595    2.0469   49.4083 H       1  ZINC000428266315    0.1000
     49 H49        -6.1076    3.4095   50.1778 H       1  ZINC000428266315    0.1100
     50 H50        -5.1674    4.3106   52.3660 H       1  ZINC000428266315    0.1300
     51 H51        -3.0696    5.0014   53.4549 H       1  ZINC000428266315    0.1400
     52 H52        -0.8814    2.3735   50.9062 H       1  ZINC000428266315    0.1400
     53 H53        -2.9796    1.6798   49.8200 H       1  ZINC000428266315    0.1400
     54 H54        -7.0709   -1.3382   52.3045 H       1  ZINC000428266315    0.1800
@<TRIPOS>BOND
     1     1     2    1
     2     1    32    1
     3     1    33    1
     4     1    34    1
     5     2     3    1
     6     2    35    1
     7     2    36    1
     8     3     4    1
     9     4     5    1
    10     4     6    1
    11     4     7    1
    12     6    37    1
    13     6    38    1
    14     6    39    1
    15     7    31    1
    16     7     8    2
    17     8     9    1
    18     9    10    1
    19    10    11    1
    20    10    31    2
    21    11    12    1
    22    11    40    1
    23    11    41    1
    24    12    13    1
    25    12    14    1
    26    13    42    1
    27    13    43    1
    28    13    44    1
    29    14    15    1
    30    14    45    1
    31    14    46    1
    32    15    30    1
    33    15    16    2
    34    16    17    1
    35    16    47    1
    36    17    18    1
    37    17    29    1
    38    18    19    1
    39    18    48    1
    40    18    49    1
    41    19    28   ar
    42    19    20   ar
    43    20    21   ar
    44    20    50    1
    45    21    22   ar
    46    21    51    1
    47    22    23    1
    48    22    27   ar
    49    23    24    1
    50    23    25    1
    51    23    26    1
    52    27    28   ar
    53    27    52    1
    54    28    53    1
    55    29    30    2
    56    30    54    1
@<TRIPOS>SUBSTRUCTURE
     1 ZINC000428266315        1 TEMP              0 ****  ****    0 ROOT


##########                                Name:    ZINC000004598904
##########                DOCK_Rotatable_Bonds:                  13
##########                         Heavy_Atoms:                  30
##########                    Molecular_Weight:             412.442
##########                DOCK_Rotatable_Bonds:                  13
##########                       Formal_Charge:          -0.0300005
##########                     HBond_Acceptors:                   8
##########                        HBond_Donors:                   2
##########                         Heavy_Atoms:                  30
##########                          Grid_Score:          -35.975040
##########                     Grid_vdw_energy:          -36.543667
##########                      Grid_es_energy:            0.568626
##########           Internal_energy_repulsive:            9.234196

@<TRIPOS>MOLECULE
ZINC000004598904
 54 55 1 0 0
SMALL
USER_CHARGES


@<TRIPOS>ATOM
      1 C1        -16.2546   -2.0902   60.2583 C.3     1  ZINC000004598904   -0.1500
      2 C2        -15.1458   -3.1442   60.2818 C.3     1  ZINC000004598904    0.0600
      3 O3        -13.9368   -2.5878   59.7015 O.3     1  ZINC000004598904   -0.3500
      4 C4        -13.8383   -2.6069   58.3577 C.2     1  ZINC000004598904    0.5100
      5 O5        -14.6842   -3.1736   57.6946 O.2     1  ZINC000004598904   -0.5100
      6 C6        -12.7039   -1.9401   57.6920 C.ar    1  ZINC000004598904   -0.1500
      7 C7        -11.9984   -0.9304   58.3534 C.ar    1  ZINC000004598904   -0.0400
      8 C8        -10.9401   -0.3103   57.7288 C.ar    1  ZINC000004598904   -0.1400
      9 C9        -10.5722   -0.6871   56.4409 C.ar    1  ZINC000004598904    0.1800
     10 N10        -9.4995   -0.0570   55.8117 N.am    1  ZINC000004598904   -0.6700
     11 C11        -9.7223    0.9672   54.9644 C.2     1  ZINC000004598904    0.5200
     12 O12       -10.8558    1.3408   54.7494 O.2     1  ZINC000004598904   -0.5100
     13 C13        -8.5627    1.6483   54.2843 C.3     1  ZINC000004598904   -0.1300
     14 C14        -8.4405    1.1345   52.8483 C.3     1  ZINC000004598904   -0.1300
     15 C15        -7.0017    1.2141   52.4069 C.2     1  ZINC000004598904    0.5200
     16 O16        -6.3940    0.2005   52.1351 O.2     1  ZINC000004598904   -0.5100
     17 N17        -6.3905    2.4117   52.3142 N.am    1  ZINC000004598904   -0.6700
     18 C18        -5.0595    2.4852   51.9059 C.ar    1  ZINC000004598904    0.1800
     19 C19        -4.7191    2.1828   50.5910 C.ar    1  ZINC000004598904   -0.1400
     20 C20        -3.4061    2.2544   50.1844 C.ar    1  ZINC000004598904   -0.0300
     21 C21        -2.4139    2.6319   51.0941 C.ar    1  ZINC000004598904   -0.1500
     22 C22        -1.0062    2.7102   50.6622 C.2     1  ZINC000004598904    0.5100
     23 O23        -0.1699    3.1910   51.4008 O.2     1  ZINC000004598904   -0.5100
     24 O24        -0.6472    2.2483   49.4482 O.3     1  ZINC000004598904   -0.3600
     25 C25         0.6260    1.5565   49.3561 C.3     1  ZINC000004598904    0.0600
     26 C26         0.8782    1.1433   47.9047 C.3     1  ZINC000004598904   -0.1500
     27 C27        -2.7596    2.9355   52.4144 C.ar    1  ZINC000004598904   -0.0400
     28 C28        -4.0753    2.8665   52.8128 C.ar    1  ZINC000004598904   -0.1600
     29 C29       -11.2721   -1.6915   55.7796 C.ar    1  ZINC000004598904   -0.1600
     30 C30       -12.3278   -2.3201   56.4002 C.ar    1  ZINC000004598904   -0.0300
     31 H31       -16.4501   -1.7914   59.2284 H       1  ZINC000004598904    0.0700
     32 H32       -17.1623   -2.5079   60.6939 H       1  ZINC000004598904    0.0800
     33 H33       -15.9414   -1.2205   60.8357 H       1  ZINC000004598904    0.0700
     34 H34       -14.9503   -3.4431   61.3117 H       1  ZINC000004598904    0.0700
     35 H35       -15.4591   -4.0140   59.7043 H       1  ZINC000004598904    0.0700
     36 H36       -12.2837   -0.6372   59.3529 H       1  ZINC000004598904    0.1400
     37 H37       -10.3949    0.4701   58.2390 H       1  ZINC000004598904    0.1400
     38 H38        -8.5928   -0.3558   55.9836 H       1  ZINC000004598904    0.4200
     39 H39        -8.7303    2.7252   54.2718 H       1  ZINC000004598904    0.1100
     40 H40        -7.6434    1.4298   54.8277 H       1  ZINC000004598904    0.1100
     41 H41        -8.7776    0.0990   52.8030 H       1  ZINC000004598904    0.1100
     42 H42        -9.0568    1.7464   52.1897 H       1  ZINC000004598904    0.1100
     43 H43        -6.8767    3.2224   52.5316 H       1  ZINC000004598904    0.4200
     44 H44        -5.4861    1.8913   49.8887 H       1  ZINC000004598904    0.1400
     45 H45        -3.1425    2.0188   49.1639 H       1  ZINC000004598904    0.1400
     46 H46         1.4246    2.2195   49.6891 H       1  ZINC000004598904    0.0700
     47 H47         0.6037    0.6687   49.9880 H       1  ZINC000004598904    0.0700
     48 H48         1.8340    0.6241   47.8356 H       1  ZINC000004598904    0.0800
     49 H49         0.0796    0.4804   47.5717 H       1  ZINC000004598904    0.0700
     50 H50         0.9006    2.0312   47.2728 H       1  ZINC000004598904    0.0700
     51 H51        -1.9958    3.2271   53.1199 H       1  ZINC000004598904    0.1400
     52 H52        -4.3433    3.1012   53.8324 H       1  ZINC000004598904    0.1400
     53 H53       -10.9838   -1.9815   54.7800 H       1  ZINC000004598904    0.1400
     54 H54       -12.8706   -3.0997   55.8864 H       1  ZINC000004598904    0.1400
@<TRIPOS>BOND
     1     1     2    1
     2     1    31    1
     3     1    32    1
     4     1    33    1
     5     2     3    1
     6     2    34    1
     7     2    35    1
     8     3     4    1
     9     4     5    2
    10     4     6    1
    11     6    30   ar
    12     6     7   ar
    13     7     8   ar
    14     7    36    1
    15     8     9   ar
    16     8    37    1
    17     9    10    1
    18     9    29   ar
    19    10    11   am
    20    10    38    1
    21    11    12    2
    22    11    13    1
    23    13    14    1
    24    13    39    1
    25    13    40    1
    26    14    15    1
    27    14    41    1
    28    14    42    1
    29    15    16    2
    30    15    17   am
    31    17    18    1
    32    17    43    1
    33    18    28   ar
    34    18    19   ar
    35    19    20   ar
    36    19    44    1
    37    20    21   ar
    38    20    45    1
    39    21    22    1
    40    21    27   ar
    41    22    23    2
    42    22    24    1
    43    24    25    1
    44    25    26    1
    45    25    46    1
    46    25    47    1
    47    26    48    1
    48    26    49    1
    49    26    50    1
    50    27    28   ar
    51    27    51    1
    52    28    52    1
    53    29    30   ar
    54    29    53    1
    55    30    54    1
@<TRIPOS>SUBSTRUCTURE
     1 ZINC000004598904        1 TEMP              0 ****  ****    0 ROOT


##########                                Name:     oleObject52.pdb
##########                DOCK_Rotatable_Bonds:                  10
##########                         Heavy_Atoms:                  38
##########                    Molecular_Weight:              533.07
##########                DOCK_Rotatable_Bonds:                  10
##########                       Formal_Charge:         0.000300027
##########                     HBond_Acceptors:                   8
##########                        HBond_Donors:                   0
##########                         Heavy_Atoms:                  38
##########                          Grid_Score:          -35.798672
##########                     Grid_vdw_energy:          -35.329380
##########                      Grid_es_energy:           -0.469293
##########           Internal_energy_repulsive:           21.632227

@<TRIPOS>MOLECULE
oleObject52.pdb
 71 74 1 0 0
SMALL
NO_CHARGES


@<TRIPOS>ATOM
      1 C         -15.7894   -2.3291   59.7264 C.ar    1  UNL        -0.0596
      2 C         -15.9818   -1.3366   58.7537 C.ar    1  UNL        -0.0314
      3 C         -14.8756   -0.6629   58.1932 C.ar    1  UNL         0.0800
      4 C         -13.5652   -0.9916   58.6114 C.ar    1  UNL         0.0089
      5 C         -13.3883   -1.9882   59.5952 C.ar    1  UNL        -0.0541
      6 C         -14.4928   -2.6536   60.1479 C.ar    1  UNL        -0.0617
      7 C         -12.3663   -0.2502   58.0002 C.3     1  UNL         0.0953
      8 C         -11.1049   -0.3506   58.8759 C.ar    1  UNL         0.0684
      9 C         -10.9778    0.3681   60.0911 C.ar    1  UNL        -0.0272
     10 C          -9.7969    0.2130   60.8412 C.ar    1  UNL        -0.0559
     11 C          -8.7926   -0.6425   60.3662 C.ar    1  UNL        -0.0435
     12 C          -9.0029   -1.3185   59.1553 C.ar    1  UNL         0.0272
     13 N         -10.1284   -1.1769   58.4307 N.ar    1  UNL        -0.2587
     14 C         -12.0780    1.2835   60.6143 C.3     1  UNL        -0.0379
     15 N         -12.1378   -0.5413   56.5560 N.am    1  UNL        -0.2917
     16 C         -11.7474    0.4808   55.6841 C.2     1  UNL         0.2180
     17 O         -11.3403    1.5434   56.1233 O.2     1  UNL        -0.2772
     18 C         -11.5285    0.1029   54.1967 C.3     1  UNL         0.0385
     19 C         -10.2439   -0.7363   53.9933 C.3     1  UNL        -0.0289
     20 C          -8.9651    0.1197   54.1190 C.3     1  UNL        -0.0010
     21 N          -8.9753    1.2556   53.1682 N.4     1  UNL        -0.3010
     22 C         -10.1630    2.1240   53.3229 C.3     1  UNL        -0.0010
     23 C         -11.4936    1.3348   53.2536 C.3     1  UNL        -0.0289
     24 C          -7.7264    2.0493   53.1544 C.3     1  UNL         0.0222
     25 C          -6.6293    1.4533   52.2483 C.3     1  UNL         0.0661
     26 O          -5.9920    2.5421   51.5566 O.3     1  UNL        -0.3432
     27 C          -4.6221    2.7049   51.4841 C.ar    1  UNL         0.0937
     28 C          -3.8641    2.1986   50.4074 C.ar    1  UNL        -0.0289
     29 C          -2.4723    2.3862   50.3722 C.ar    1  UNL        -0.0417
     30 C          -1.8250    3.0798   51.4093 C.ar    1  UNL         0.0537
     31 C          -2.5763    3.5860   52.4835 C.ar    1  UNL        -0.0230
     32 C          -3.9683    3.3999   52.5212 C.ar    1  UNL         0.0721
     33 CL         -4.8710    4.0463   53.8786 Cl      1  UNL        -0.0814
     34 C          -0.4035    3.2700   51.3714 C.1     1  UNL         0.0992
     35 N           0.7429    3.4169   51.3322 N.1     1  UNL        -0.1924
     36 C         -12.3797   -1.9287   56.1036 C.3     1  UNL         0.0037
     37 O         -15.0401    0.3261   57.2384 O.3     1  UNL        -0.3490
     38 C         -16.3190    0.7385   56.7275 C.3     1  UNL         0.0422
     39 H         -16.6448   -2.8439   60.1542 H       1  UNL         0.0624
     40 H         -16.9944   -1.1001   58.4451 H       1  UNL         0.0651
     41 H         -12.3949   -2.2542   59.9398 H       1  UNL         0.0627
     42 H         -14.3427   -3.4198   60.9030 H       1  UNL         0.0623
     43 H         -12.6584    0.8054   58.0308 H       1  UNL         0.0627
     44 H          -9.6611    0.7424   61.7799 H       1  UNL         0.0627
     45 H          -7.8727   -0.7829   60.9260 H       1  UNL         0.0639
     46 H          -8.2500   -1.9956   58.7539 H       1  UNL         0.0840
     47 H         -12.3957    1.9987   59.8483 H       1  UNL         0.0280
     48 H         -11.7444    1.8628   61.4841 H       1  UNL         0.0280
     49 H         -12.9570    0.7027   60.9213 H       1  UNL         0.0280
     50 H         -12.3836   -0.5013   53.8759 H       1  UNL         0.0402
     51 H         -10.2667   -1.1861   52.9923 H       1  UNL         0.0288
     52 H         -10.2075   -1.5689   54.7053 H       1  UNL         0.0288
     53 H          -8.1048   -0.5334   53.9318 H       1  UNL         0.0431
     54 H          -8.8814    0.4982   55.1465 H       1  UNL         0.0431
     55 H         -10.1708    2.8855   52.5324 H       1  UNL         0.0431
     56 H         -10.1043    2.6547   54.2814 H       1  UNL         0.0431
     57 H         -11.6324    0.9886   52.2212 H       1  UNL         0.0288
     58 H         -12.3361    2.0031   53.4732 H       1  UNL         0.0288
     59 H          -7.3343    2.1467   54.1754 H       1  UNL         0.0455
     60 H          -7.9468    3.0606   52.7885 H       1  UNL         0.0455
     61 H          -7.0864    0.7615   51.5292 H       1  UNL         0.0586
     62 H          -5.8917    0.9112   52.8522 H       1  UNL         0.0586
     63 H          -4.3400    1.6601   49.5941 H       1  UNL         0.0651
     64 H          -1.8982    1.9920   49.5376 H       1  UNL         0.0638
     65 H          -2.0831    4.1234   53.2892 H       1  UNL         0.0653
     66 H         -13.1232   -2.4210   56.7408 H       1  UNL         0.0433
     67 H         -11.4454   -2.5022   56.1380 H       1  UNL         0.0433
     68 H         -12.7764   -1.9345   55.0818 H       1  UNL         0.0433
     69 H         -16.1831    1.5400   55.9912 H       1  UNL         0.0535
     70 H         -16.9526    1.1166   57.5399 H       1  UNL         0.0535
     71 H         -16.8254   -0.1019   56.2363 H       1  UNL         0.0535
@<TRIPOS>BOND
     1     1     2   ar
     2     1     6   ar
     3     1    39    1
     4     2     3   ar
     5     2    40    1
     6     3     4   ar
     7     3    37    1
     8     4     5   ar
     9     4     7    1
    10     5     6   ar
    11     5    41    1
    12     6    42    1
    13     7     8    1
    14     7    15    1
    15     7    43    1
    16     8     9   ar
    17     8    13   ar
    18     9    10   ar
    19     9    14    1
    20    10    11   ar
    21    10    44    1
    22    11    12   ar
    23    11    45    1
    24    12    13   ar
    25    12    46    1
    26    14    47    1
    27    14    48    1
    28    14    49    1
    29    15    16   am
    30    15    36    1
    31    16    17    2
    32    16    18    1
    33    18    19    1
    34    18    23    1
    35    18    50    1
    36    19    20    1
    37    19    51    1
    38    19    52    1
    39    20    21    1
    40    20    53    1
    41    20    54    1
    42    21    22    1
    43    21    24    1
    44    22    23    1
    45    22    55    1
    46    22    56    1
    47    23    57    1
    48    23    58    1
    49    24    25    1
    50    24    59    1
    51    24    60    1
    52    25    26    1
    53    25    61    1
    54    25    62    1
    55    26    27    1
    56    27    28   ar
    57    27    32   ar
    58    28    29   ar
    59    28    63    1
    60    29    30   ar
    61    29    64    1
    62    30    31   ar
    63    30    34    1
    64    31    32   ar
    65    31    65    1
    66    32    33    1
    67    34    35    3
    68    36    66    1
    69    36    67    1
    70    36    68    1
    71    37    38    1
    72    38    69    1
    73    38    70    1
    74    38    71    1
@<TRIPOS>SUBSTRUCTURE
     1 UNL         1 TEMP              0 ****  ****    0 ROOT


##########                                Name:    ZINC001596273020
##########                DOCK_Rotatable_Bonds:                  11
##########                         Heavy_Atoms:                  25
##########                    Molecular_Weight:             355.478
##########                DOCK_Rotatable_Bonds:                  11
##########                       Formal_Charge:          -0.0499996
##########                     HBond_Acceptors:                   7
##########                        HBond_Donors:                   2
##########                         Heavy_Atoms:                  25
##########                          Grid_Score:          -35.725178
##########                     Grid_vdw_energy:          -28.102917
##########                      Grid_es_energy:           -7.622261
##########           Internal_energy_repulsive:           15.095364

@<TRIPOS>MOLECULE
ZINC001596273020
 58 59 1 0 0
SMALL
USER_CHARGES


@<TRIPOS>ATOM
      1 C1         -6.4470    0.4756   52.1091 C.3     1  ZINC001596273020   -0.1900
      2 C2         -7.7871    1.1493   52.4111 C.3     1  ZINC001596273020   -0.0200
      3 N3         -7.9740    1.2376   53.8655 N.4     1  ZINC001596273020   -0.3900
      4 H4         -7.6059    0.4062   54.3030 H       1  ZINC001596273020    0.4300
      5 C5         -7.2643    2.4166   54.3796 C.3     1  ZINC001596273020   -0.0100
      6 C6         -7.1815    2.3368   55.9053 C.3     1  ZINC001596273020   -0.1900
      7 C7         -9.4063    1.3573   54.1687 C.3     1  ZINC001596273020   -0.0100
      8 C8        -10.0577   -0.0259   54.1086 C.3     1  ZINC001596273020    0.0300
      9 O9         -9.8785   -0.6914   55.3604 O.3     1  ZINC001596273020   -0.3900
     10 C10       -10.3321   -2.0466   55.3682 C.3     1  ZINC001596273020    0.0500
     11 C11       -10.4590   -2.5335   56.8131 C.3     1  ZINC001596273020    0.1400
     12 N12       -11.5188   -1.7822   57.4904 N.am    1  ZINC001596273020   -0.7500
     13 C13       -11.9071   -2.1350   58.7318 C.2     1  ZINC001596273020    0.7200
     14 O14       -11.3790   -3.0779   59.2891 O.2     1  ZINC001596273020   -0.6000
     15 N15       -12.8809   -1.4428   59.3555 N.am    1  ZINC001596273020   -0.6300
     16 C16       -13.6422   -0.2786   58.8390 C.3     1  ZINC001596273020    0.1100
     17 C17       -15.1002   -0.5607   59.3034 C.3     1  ZINC001596273020   -0.0800
     18 H18       -15.6084    0.3807   59.5124 H       1  ZINC001596273020    0.1200
     19 C19       -15.8067   -1.2836   58.1741 C.3     1  ZINC001596273020   -0.1000
     20 C20       -16.8993   -2.2231   58.6649 C.3     1  ZINC001596273020   -0.1200
     21 C21       -16.2563   -3.2484   59.6083 C.3     1  ZINC001596273020   -0.1200
     22 C22       -15.8205   -2.5065   60.8678 C.3     1  ZINC001596273020   -0.0800
     23 C23       -14.9281   -1.3438   60.5863 C.3     1  ZINC001596273020   -0.1400
     24 C24       -15.1838   -0.3542   61.6936 C.2     1  ZINC001596273020    0.5000
     25 O25       -15.7586   -0.7098   62.7083 O.co2   1  ZINC001596273020   -0.6900
     26 O26       -14.8160    0.8022   61.5748 O.co2   1  ZINC001596273020   -0.6900
     27 C27       -13.4374   -1.6771   60.7103 C.3     1  ZINC001596273020    0.1600
     28 H28        -5.6334    1.1179   52.4459 H       1  ZINC001596273020    0.0800
     29 H29        -6.3951   -0.4801   52.6306 H       1  ZINC001596273020    0.0800
     30 H30        -6.3578    0.3091   51.0355 H       1  ZINC001596273020    0.1000
     31 H31        -7.7947    2.1513   51.9822 H       1  ZINC001596273020    0.1300
     32 H32        -8.5954    0.5615   51.9759 H       1  ZINC001596273020    0.1300
     33 H33        -6.2580    2.4458   53.9620 H       1  ZINC001596273020    0.1300
     34 H34        -7.8033    3.3193   54.0918 H       1  ZINC001596273020    0.1300
     35 H35        -8.1827    2.4190   56.3283 H       1  ZINC001596273020    0.0800
     36 H36        -6.7414    1.3829   56.1958 H       1  ZINC001596273020    0.0800
     37 H37        -6.5613    3.1518   56.2785 H       1  ZINC001596273020    0.1000
     38 H38        -9.5326    1.7753   55.1674 H       1  ZINC001596273020    0.1400
     39 H39        -9.8789    2.0135   53.4377 H       1  ZINC001596273020    0.1400
     40 H40       -11.1227    0.0827   53.9040 H       1  ZINC001596273020    0.1000
     41 H41        -9.5933   -0.6121   53.3157 H       1  ZINC001596273020    0.0700
     42 H42       -11.3036   -2.1073   54.8777 H       1  ZINC001596273020    0.0700
     43 H43        -9.6162   -2.6724   54.8355 H       1  ZINC001596273020    0.0700
     44 H44       -10.7060   -3.5951   56.8184 H       1  ZINC001596273020    0.0900
     45 H45        -9.5139   -2.3778   57.3333 H       1  ZINC001596273020    0.0700
     46 H46       -11.9409   -1.0307   57.0454 H       1  ZINC001596273020    0.3900
     47 H47       -13.2720    0.6475   59.2788 H       1  ZINC001596273020    0.0700
     48 H48       -13.5875   -0.2366   57.7512 H       1  ZINC001596273020    0.0600
     49 H49       -16.2519   -0.5446   57.5079 H       1  ZINC001596273020    0.0500
     50 H50       -15.0722   -1.8616   57.6132 H       1  ZINC001596273020    0.0400
     51 H51       -17.6597   -1.6553   59.2011 H       1  ZINC001596273020    0.0700
     52 H52       -17.3520   -2.7364   57.8166 H       1  ZINC001596273020    0.0500
     53 H53       -16.9821   -4.0197   59.8660 H       1  ZINC001596273020    0.0600
     54 H54       -15.3894   -3.7010   59.1271 H       1  ZINC001596273020    0.0500
     55 H55       -16.7090   -2.1494   61.3887 H       1  ZINC001596273020    0.0600
     56 H56       -15.2925   -3.2031   61.5191 H       1  ZINC001596273020    0.0600
     57 H57       -13.3041   -2.7180   61.0051 H       1  ZINC001596273020    0.0700
     58 H58       -12.9583   -1.0132   61.4300 H       1  ZINC001596273020    0.0700
@<TRIPOS>BOND
     1     1     2    1
     2     1    28    1
     3     1    29    1
     4     1    30    1
     5     2     3    1
     6     2    31    1
     7     2    32    1
     8     3     4    1
     9     3     5    1
    10     3     7    1
    11     5     6    1
    12     5    33    1
    13     5    34    1
    14     6    35    1
    15     6    36    1
    16     6    37    1
    17     7     8    1
    18     7    38    1
    19     7    39    1
    20     8     9    1
    21     8    40    1
    22     8    41    1
    23     9    10    1
    24    10    11    1
    25    10    42    1
    26    10    43    1
    27    11    12    1
    28    11    44    1
    29    11    45    1
    30    12    13   am
    31    12    46    1
    32    13    14    2
    33    13    15   am
    34    15    27    1
    35    15    16    1
    36    16    17    1
    37    16    47    1
    38    16    48    1
    39    17    18    1
    40    17    23    1
    41    17    19    1
    42    19    20    1
    43    19    49    1
    44    19    50    1
    45    20    21    1
    46    20    51    1
    47    20    52    1
    48    21    22    1
    49    21    53    1
    50    21    54    1
    51    22    23    1
    52    22    55    1
    53    22    56    1
    54    23    24    1
    55    23    27    1
    56    24    25   ar
    57    24    26   ar
    58    27    57    1
    59    27    58    1
@<TRIPOS>SUBSTRUCTURE
     1 ZINC001596273020        1 TEMP              0 ****  ****    0 ROOT


##########                                Name:    ZINC000426805817
##########                DOCK_Rotatable_Bonds:                   6
##########                         Heavy_Atoms:                  26
##########                    Molecular_Weight:             412.286
##########                DOCK_Rotatable_Bonds:                   6
##########                       Formal_Charge:          -0.0100001
##########                     HBond_Acceptors:                   5
##########                        HBond_Donors:                   4
##########                         Heavy_Atoms:                  26
##########                          Grid_Score:          -35.689003
##########                     Grid_vdw_energy:          -34.122501
##########                      Grid_es_energy:           -1.566501
##########           Internal_energy_repulsive:            7.035544

@<TRIPOS>MOLECULE
ZINC000426805817
 44 47 1 0 0
SMALL
USER_CHARGES


@<TRIPOS>ATOM
      1 O1         -5.9537   -0.1225   50.0833 O.co2   1  ZINC000426805817   -0.6300
      2 C2         -5.9850    0.5813   51.0784 C.2     1  ZINC000426805817    0.5000
      3 O3         -6.5891    0.2087   52.0697 O.co2   1  ZINC000426805817   -0.6800
      4 C4         -5.2719    1.9088   51.0852 C.3     1  ZINC000426805817   -0.0500
      5 H5         -5.0550    2.1995   52.1132 H       1  ZINC000426805817    0.1300
      6 C6         -3.9629    1.7887   50.3023 C.3     1  ZINC000426805817   -0.0500
      7 C7         -2.8689    2.5192   51.0376 C.2     1  ZINC000426805817   -0.1900
      8 C8         -3.0145    3.2836   52.1313 C.2     1  ZINC000426805817    0.0500
      9 N9         -1.8002    3.7828   52.5166 N.pl3   1  ZINC000426805817   -0.5900
     10 C10        -0.8181    3.3405   51.6580 C.ar    1  ZINC000426805817    0.1100
     11 C11         0.5562    3.5426   51.5922 C.ar    1  ZINC000426805817   -0.1200
     12 C12         1.2908    2.9505   50.5885 C.ar    1  ZINC000426805817   -0.0700
     13 C13         0.6729    2.1499   49.6365 C.ar    1  ZINC000426805817   -0.1100
     14 Br14        1.7046    1.3487   48.2691 Br      1  ZINC000426805817   -0.0400
     15 C15        -0.6867    1.9359   49.6831 C.ar    1  ZINC000426805817   -0.0400
     16 C16        -1.4438    2.5245   50.6978 C.ar    1  ZINC000426805817   -0.1000
     17 N17        -6.1258    2.9266   50.4584 N.4     1  ZINC000426805817   -0.4800
     18 H18        -5.5759    3.4788   49.8175 H       1  ZINC000426805817    0.4000
     19 H19        -6.8746    2.4742   49.9556 H       1  ZINC000426805817    0.4200
     20 C20        -6.6904    3.7992   51.4967 C.3     1  ZINC000426805817    0.0400
     21 C21        -8.0973    3.3602   51.8114 C.ar    1  ZINC000426805817   -0.1600
     22 C22        -9.1268    3.6208   50.9133 C.ar    1  ZINC000426805817    0.1100
     23 N23        -9.1797    4.2435   49.6865 N.pl3   1  ZINC000426805817   -0.5900
     24 C24       -10.4642    4.2338   49.2148 C.2     1  ZINC000426805817    0.0600
     25 C25       -11.2705    3.6205   50.0955 C.2     1  ZINC000426805817   -0.2000
     26 C26       -10.4342    3.2032   51.2234 C.ar    1  ZINC000426805817   -0.1100
     27 C27       -10.6857    2.5347   52.4228 C.ar    1  ZINC000426805817   -0.0400
     28 C28        -9.6591    2.2890   53.2907 C.ar    1  ZINC000426805817   -0.1500
     29 C29        -8.3669    2.6943   52.9871 C.ar    1  ZINC000426805817   -0.0700
     30 H30        -3.6943    0.7371   50.2026 H       1  ZINC000426805817    0.1200
     31 H31        -4.0903    2.2266   49.3122 H       1  ZINC000426805817    0.0900
     32 H32        -3.9513    3.4762   52.6328 H       1  ZINC000426805817    0.1700
     33 H33        -1.6529    4.3620   53.2807 H       1  ZINC000426805817    0.4200
     34 H34         1.0470    4.1636   52.3270 H       1  ZINC000426805817    0.1300
     35 H35         2.3578    3.1107   50.5412 H       1  ZINC000426805817    0.1400
     36 H36        -1.1641    1.3128   48.9414 H       1  ZINC000426805817    0.1400
     37 H37        -6.0796    3.7346   52.3971 H       1  ZINC000426805817    0.1500
     38 H38        -6.7025    4.8287   51.1389 H       1  ZINC000426805817    0.1300
     39 H39        -8.4197    4.6318   49.2253 H       1  ZINC000426805817    0.4300
     40 H40       -10.7821    4.6571   48.2735 H       1  ZINC000426805817    0.1800
     41 H41       -12.3342    3.4646   49.9922 H       1  ZINC000426805817    0.1500
     42 H42       -11.6881    2.2131   52.6640 H       1  ZINC000426805817    0.1300
     43 H43        -9.8543    1.7718   54.2186 H       1  ZINC000426805817    0.1300
     44 H44        -7.5661    2.4929   53.6832 H       1  ZINC000426805817    0.1300
@<TRIPOS>BOND
     1     1     2   ar
     2     2     3   ar
     3     2     4    1
     4     4     5    1
     5     4     6    1
     6     4    17    1
     7     6     7    1
     8     6    30    1
     9     6    31    1
    10     7    16    1
    11     7     8    2
    12     8     9    1
    13     8    32    1
    14     9    10    1
    15     9    33    1
    16    10    16   ar
    17    10    11   ar
    18    11    12   ar
    19    11    34    1
    20    12    13   ar
    21    12    35    1
    22    13    14    1
    23    13    15   ar
    24    15    16   ar
    25    15    36    1
    26    17    18    1
    27    17    19    1
    28    17    20    1
    29    20    21    1
    30    20    37    1
    31    20    38    1
    32    21    29   ar
    33    21    22   ar
    34    22    26   ar
    35    22    23    1
    36    23    24    1
    37    23    39    1
    38    24    25    2
    39    24    40    1
    40    25    26    1
    41    25    41    1
    42    26    27   ar
    43    27    28   ar
    44    27    42    1
    45    28    29   ar
    46    28    43    1
    47    29    44    1
@<TRIPOS>SUBSTRUCTURE
     1 ZINC000426805817        1 TEMP              0 ****  ****    0 ROOT


##########                                Name:     oleObject14.pdb
##########                DOCK_Rotatable_Bonds:                   9
##########                         Heavy_Atoms:                  33
##########                    Molecular_Weight:             484.424
##########                DOCK_Rotatable_Bonds:                   9
##########                       Formal_Charge:         0.000299782
##########                     HBond_Acceptors:                   7
##########                        HBond_Donors:                   1
##########                         Heavy_Atoms:                  33
##########                          Grid_Score:          -35.531136
##########                     Grid_vdw_energy:          -34.981552
##########                      Grid_es_energy:           -0.549583
##########           Internal_energy_repulsive:            7.925338

@<TRIPOS>MOLECULE
oleObject14.pdb
 60 63 1 0 0
SMALL
NO_CHARGES


@<TRIPOS>ATOM
      1 C          -1.1692    2.4402   50.7427 C.ar    1  UNL         0.0422
      2 C          -2.2719    2.0473   49.9679 C.ar    1  UNL        -0.0408
      3 C          -3.5767    2.2377   50.4530 C.ar    1  UNL        -0.0288
      4 C          -3.7847    2.8238   51.7200 C.ar    1  UNL         0.0937
      5 C          -2.6714    3.2157   52.4912 C.ar    1  UNL         0.0723
      6 C          -1.3679    3.0240   52.0036 C.ar    1  UNL        -0.0221
      7 CL         -2.8845    3.9479   54.0705 Cl      1  UNL        -0.0814
      8 O          -5.0511    3.0285   52.2333 O.3     1  UNL        -0.3432
      9 C          -6.1574    2.1387   52.0012 C.3     1  UNL         0.0661
     10 C          -7.3527    2.6468   52.8338 C.3     1  UNL         0.0222
     11 N          -8.5787    1.8364   52.6605 N.4     1  UNL        -0.3010
     12 C          -8.6391    0.6319   53.5213 C.3     1  UNL        -0.0010
     13 C          -9.8831   -0.2322   53.2167 C.3     1  UNL        -0.0289
     14 C         -11.2050    0.5694   53.2927 C.3     1  UNL         0.0382
     15 C         -11.0856    1.8714   52.4611 C.3     1  UNL        -0.0289
     16 C          -9.7953    2.6720   52.7562 C.3     1  UNL        -0.0010
     17 C         -11.6250    0.8433   54.7581 C.2     1  UNL         0.2156
     18 O         -12.0270    1.9344   55.1190 O.2     1  UNL        -0.2774
     19 N         -11.5918   -0.1858   55.6902 N.am    1  UNL        -0.3025
     20 C         -11.9514   -0.1186   57.1191 C.3     1  UNL         0.0900
     21 C         -12.8626   -1.2633   57.5584 C.ar    1  UNL        -0.0217
     22 C         -12.6918   -2.5670   57.0504 C.ar    1  UNL        -0.0568
     23 C         -13.5456   -3.6056   57.4565 C.ar    1  UNL        -0.0619
     24 C         -14.5748   -3.3504   58.3762 C.ar    1  UNL        -0.0622
     25 C         -14.7476   -2.0562   58.8914 C.ar    1  UNL        -0.0619
     26 C         -13.8936   -1.0179   58.4852 C.ar    1  UNL        -0.0568
     27 C         -10.7145   -0.0417   58.0089 C.ar    1  UNL         0.0652
     28 C          -9.5700    0.6879   57.6259 C.ar    1  UNL        -0.0383
     29 C          -8.4591    0.7138   58.4843 C.ar    1  UNL        -0.0588
     30 C          -8.5305    0.0081   59.6954 C.ar    1  UNL        -0.0438
     31 C          -9.7091   -0.6949   59.9984 C.ar    1  UNL         0.0272
     32 N         -10.7768   -0.7209   59.1752 N.ar    1  UNL        -0.2590
     33 CL          0.4552    2.2017   50.1354 Cl      1  UNL        -0.0843
     34 H          -2.1173    1.5958   48.9920 H       1  UNL         0.0639
     35 H          -4.4142    1.9269   49.8370 H       1  UNL         0.0652
     36 H          -0.5139    3.3278   52.6023 H       1  UNL         0.0655
     37 H          -5.8889    1.1201   52.3060 H       1  UNL         0.0586
     38 H          -6.4280    2.1382   50.9375 H       1  UNL         0.0586
     39 H          -7.5577    3.6801   52.5247 H       1  UNL         0.0455
     40 H          -7.0671    2.6707   53.8936 H       1  UNL         0.0455
     41 H          -8.6559    0.9323   54.5772 H       1  UNL         0.0431
     42 H          -7.7526    0.0053   53.3697 H       1  UNL         0.0431
     43 H          -9.9156   -1.0856   53.9039 H       1  UNL         0.0288
     44 H          -9.7789   -0.6482   52.2062 H       1  UNL         0.0288
     45 H         -11.9787   -0.0296   52.8052 H       1  UNL         0.0402
     46 H         -11.9649    2.5065   52.6283 H       1  UNL         0.0288
     47 H         -11.0887    1.6078   51.3955 H       1  UNL         0.0288
     48 H          -9.8613    3.1124   53.7590 H       1  UNL         0.0431
     49 H          -9.7324    3.5020   52.0406 H       1  UNL         0.0431
     50 H         -11.3847   -1.1041   55.3185 H       1  UNL         0.1504
     51 H         -12.4955    0.8237   57.2632 H       1  UNL         0.0624
     52 H         -11.9036   -2.7766   56.3333 H       1  UNL         0.0626
     53 H         -13.4100   -4.6067   57.0574 H       1  UNL         0.0623
     54 H         -15.2350   -4.1538   58.6906 H       1  UNL         0.0623
     55 H         -15.5414   -1.8579   59.6060 H       1  UNL         0.0623
     56 H         -14.0344   -0.0200   58.8914 H       1  UNL         0.0626
     57 H          -9.5412    1.2240   56.6822 H       1  UNL         0.0643
     58 H          -7.5639    1.2675   58.2165 H       1  UNL         0.0624
     59 H          -7.6915    0.0044   60.3850 H       1  UNL         0.0639
     60 H          -9.8014   -1.2546   60.9284 H       1  UNL         0.0840
@<TRIPOS>BOND
     1     1     2   ar
     2     1     6   ar
     3     1    33    1
     4     2     3   ar
     5     2    34    1
     6     3     4   ar
     7     3    35    1
     8     4     5   ar
     9     4     8    1
    10     5     6   ar
    11     5     7    1
    12     6    36    1
    13     8     9    1
    14     9    10    1
    15     9    37    1
    16     9    38    1
    17    10    11    1
    18    10    39    1
    19    10    40    1
    20    11    12    1
    21    11    16    1
    22    12    13    1
    23    12    41    1
    24    12    42    1
    25    13    14    1
    26    13    43    1
    27    13    44    1
    28    14    15    1
    29    14    17    1
    30    14    45    1
    31    15    16    1
    32    15    46    1
    33    15    47    1
    34    16    48    1
    35    16    49    1
    36    17    18    2
    37    17    19   am
    38    19    20    1
    39    19    50    1
    40    20    21    1
    41    20    27    1
    42    20    51    1
    43    21    22   ar
    44    21    26   ar
    45    22    23   ar
    46    22    52    1
    47    23    24   ar
    48    23    53    1
    49    24    25   ar
    50    24    54    1
    51    25    26   ar
    52    25    55    1
    53    26    56    1
    54    27    28   ar
    55    27    32   ar
    56    28    29   ar
    57    28    57    1
    58    29    30   ar
    59    29    58    1
    60    30    31   ar
    61    30    59    1
    62    31    32   ar
    63    31    60    1
@<TRIPOS>SUBSTRUCTURE
     1 UNL         1 TEMP              0 ****  ****    0 ROOT


##########                                Name:    ZINC001461256440
##########                DOCK_Rotatable_Bonds:                  13
##########                         Heavy_Atoms:                  26
##########                    Molecular_Weight:             367.445
##########                DOCK_Rotatable_Bonds:                  13
##########                       Formal_Charge:        -6.37025e-07
##########                     HBond_Acceptors:                   8
##########                        HBond_Donors:                   1
##########                         Heavy_Atoms:                  26
##########                          Grid_Score:          -35.477016
##########                     Grid_vdw_energy:          -33.780102
##########                      Grid_es_energy:           -1.696916
##########           Internal_energy_repulsive:           36.647678

@<TRIPOS>MOLECULE
ZINC001461256440
 55 55 1 0 0
SMALL
USER_CHARGES


@<TRIPOS>ATOM
      1 C1         -8.3321    0.1473   53.1516 C.3     1  ZINC001461256440   -0.1500
      2 C2         -7.1957   -0.3710   52.2678 C.3     1  ZINC001461256440    0.0600
      3 O3         -6.2852    0.7179   51.9620 O.3     1  ZINC001461256440   -0.3600
      4 C4         -5.6623    0.6760   50.7738 C.2     1  ZINC001461256440    0.4400
      5 O5         -5.5073   -0.3812   50.2099 O.2     1  ZINC001461256440   -0.4800
      6 C6         -5.1562    1.9477   50.1431 C.3     1  ZINC001461256440    0.1400
      7 N7         -3.8309    2.2655   50.6806 N.pl3   1  ZINC001461256440   -0.3800
      8 N8         -2.6029    1.9596   50.0802 N.2     1  ZINC001461256440   -0.2800
      9 C9         -1.6443    2.4005   50.8541 C.2     1  ZINC001461256440    0.1000
     10 C10        -0.1666    2.2806   50.5838 C.3     1  ZINC001461256440   -0.0700
     11 C11        -2.2252    3.0022   51.9737 C.2     1  ZINC001461256440   -0.2700
     12 C12        -3.5767    2.9114   51.8415 C.2     1  ZINC001461256440    0.3100
     13 N13        -4.5270    3.3898   52.7435 N.am    1  ZINC001461256440   -0.6500
     14 C14        -5.0031    4.6445   52.6186 C.2     1  ZINC001461256440    0.5200
     15 O15        -4.6062    5.3571   51.7209 O.2     1  ZINC001461256440   -0.5000
     16 C16        -6.0283    5.1620   53.5942 C.3     1  ZINC001461256440   -0.1300
     17 C17        -5.6843    4.6736   55.0027 C.3     1  ZINC001461256440   -0.1100
     18 C18        -6.4970    5.4647   56.0295 C.3     1  ZINC001461256440   -0.1100
     19 C19        -6.3457    4.8176   57.4078 C.3     1  ZINC001461256440   -0.1200
     20 C20        -7.5171    3.9054   57.6657 C.2     1  ZINC001461256440    0.4600
     21 O21        -8.6450    4.3206   57.5418 O.2     1  ZINC001461256440   -0.5000
     22 O22        -7.3075    2.6314   58.0331 O.3     1  ZINC001461256440   -0.3500
     23 C23        -8.4823    1.8155   58.2827 C.3     1  ZINC001461256440    0.1200
     24 C24        -8.0473    0.4100   58.7025 C.3     1  ZINC001461256440   -0.1800
     25 C25        -9.3139    2.4473   59.4008 C.3     1  ZINC001461256440   -0.1400
     26 C26        -9.3237    1.7294   57.0078 C.3     1  ZINC001461256440   -0.1800
     27 H27        -9.0156   -0.6701   53.3811 H       1  ZINC001461256440    0.0800
     28 H28        -7.9188    0.5464   54.0778 H       1  ZINC001461256440    0.0700
     29 H29        -8.8713    0.9350   52.6253 H       1  ZINC001461256440    0.0700
     30 H30        -6.6565   -1.1586   52.7940 H       1  ZINC001461256440    0.0700
     31 H31        -7.6090   -0.7700   51.3414 H       1  ZINC001461256440    0.0700
     32 H32        -5.0882    1.8157   49.0633 H       1  ZINC001461256440    0.1300
     33 H33        -5.8440    2.7631   50.3669 H       1  ZINC001461256440    0.1400
     34 H34         0.1726    3.1532   50.0255 H       1  ZINC001461256440    0.0800
     35 H35         0.3722    2.2223   51.5295 H       1  ZINC001461256440    0.0800
     36 H36         0.0242    1.3796   50.0007 H       1  ZINC001461256440    0.0700
     37 H37        -1.6958    3.4610   52.7959 H       1  ZINC001461256440    0.1800
     38 H38        -4.8452    2.8194   53.4607 H       1  ZINC001461256440    0.4100
     39 H39        -6.0282    6.2519   53.5774 H       1  ZINC001461256440    0.1000
     40 H40        -7.0153    4.7945   53.3131 H       1  ZINC001461256440    0.1000
     41 H41        -5.9239    3.6137   55.0883 H       1  ZINC001461256440    0.0800
     42 H42        -4.6206    4.8218   55.1889 H       1  ZINC001461256440    0.0800
     43 H43        -6.1328    6.4913   56.0682 H       1  ZINC001461256440    0.0700
     44 H44        -7.5480    5.4627   55.7407 H       1  ZINC001461256440    0.0700
     45 H45        -5.4218    4.2402   57.4386 H       1  ZINC001461256440    0.1100
     46 H46        -6.3146    5.5941   58.1721 H       1  ZINC001461256440    0.1100
     47 H47        -7.4478    0.4713   59.6108 H       1  ZINC001461256440    0.0600
     48 H48        -8.9292   -0.2026   58.8899 H       1  ZINC001461256440    0.0700
     49 H49        -7.4548   -0.0401   57.9060 H       1  ZINC001461256440    0.0800
     50 H50        -9.6238    3.4485   59.1018 H       1  ZINC001461256440    0.0700
     51 H51       -10.1957    1.8347   59.5882 H       1  ZINC001461256440    0.0800
     52 H52        -8.7144    2.5086   60.3092 H       1  ZINC001461256440    0.0700
     53 H53        -8.7313    1.2792   56.2112 H       1  ZINC001461256440    0.0800
     54 H54       -10.2056    1.1168   57.1951 H       1  ZINC001461256440    0.0700
     55 H55        -9.6336    2.7306   56.7086 H       1  ZINC001461256440    0.0600
@<TRIPOS>BOND
     1     1     2    1
     2     1    27    1
     3     1    28    1
     4     1    29    1
     5     2     3    1
     6     2    30    1
     7     2    31    1
     8     3     4    1
     9     4     5    2
    10     4     6    1
    11     6     7    1
    12     6    32    1
    13     6    33    1
    14     7    12    1
    15     7     8    1
    16     8     9    2
    17     9    10    1
    18     9    11    1
    19    10    34    1
    20    10    35    1
    21    10    36    1
    22    11    12    2
    23    11    37    1
    24    12    13    1
    25    13    14   am
    26    13    38    1
    27    14    15    2
    28    14    16    1
    29    16    17    1
    30    16    39    1
    31    16    40    1
    32    17    18    1
    33    17    41    1
    34    17    42    1
    35    18    19    1
    36    18    43    1
    37    18    44    1
    38    19    20    1
    39    19    45    1
    40    19    46    1
    41    20    21    2
    42    20    22    1
    43    22    23    1
    44    23    24    1
    45    23    25    1
    46    23    26    1
    47    24    47    1
    48    24    48    1
    49    24    49    1
    50    25    50    1
    51    25    51    1
    52    25    52    1
    53    26    53    1
    54    26    54    1
    55    26    55    1
@<TRIPOS>SUBSTRUCTURE
     1 ZINC001461256440        1 TEMP              0 ****  ****    0 ROOT


##########                                Name:    ZINC000046390957
##########                DOCK_Rotatable_Bonds:                   9
##########                         Heavy_Atoms:                  29
##########                    Molecular_Weight:             408.521
##########                DOCK_Rotatable_Bonds:                   9
##########                       Formal_Charge:           0.0100005
##########                     HBond_Acceptors:                   6
##########                        HBond_Donors:                   1
##########                         Heavy_Atoms:                  29
##########                          Grid_Score:          -35.463696
##########                     Grid_vdw_energy:          -32.816147
##########                      Grid_es_energy:           -2.647549
##########           Internal_energy_repulsive:           15.374345

@<TRIPOS>MOLECULE
ZINC000046390957
 53 55 1 0 0
SMALL
USER_CHARGES


@<TRIPOS>ATOM
      1 C1         -4.9191    1.2536   50.7332 C.3     1  ZINC000046390957   -0.1100
      2 C2         -3.8089    2.1625   51.1939 C.ar    1  ZINC000046390957   -0.0600
      3 C3         -2.6449    2.2605   50.4568 C.ar    1  ZINC000046390957   -0.1200
      4 C4         -1.6255    3.0939   50.8792 C.ar    1  ZINC000046390957   -0.1100
      5 C5         -1.7678    3.8319   52.0399 C.ar    1  ZINC000046390957   -0.1200
      6 C6         -2.9294    3.7387   52.7812 C.ar    1  ZINC000046390957   -0.0800
      7 C7         -3.0838    4.5437   54.0458 C.3     1  ZINC000046390957   -0.1100
      8 C8         -3.9572    2.9066   52.3570 C.ar    1  ZINC000046390957    0.1300
      9 N9         -5.1355    2.8103   53.1055 N.am    1  ZINC000046390957   -0.6800
     10 C10        -6.1421    3.6809   52.8927 C.2     1  ZINC000046390957    0.5200
     11 O11        -6.0266    4.5480   52.0525 O.2     1  ZINC000046390957   -0.4900
     12 C12        -7.4111    3.5771   53.6989 C.3     1  ZINC000046390957    0.0700
     13 H13        -7.8179    4.5745   53.8660 H       1  ZINC000046390957    0.1100
     14 C14        -8.4323    2.7312   52.9357 C.3     1  ZINC000046390957   -0.1700
     15 O15        -7.1229    2.9515   54.9771 O.3     1  ZINC000046390957   -0.3300
     16 C16        -6.4058    3.6668   55.8577 C.2     1  ZINC000046390957    0.4700
     17 O17        -6.1578    4.8279   55.6335 O.2     1  ZINC000046390957   -0.4800
     18 C18        -5.9099    3.0217   57.1263 C.3     1  ZINC000046390957   -0.0300
     19 C19        -7.0598    2.3486   57.8303 C.2     1  ZINC000046390957    0.0800
     20 C20        -8.2418    2.9439   58.0162 C.2     1  ZINC000046390957   -0.2500
     21 S21        -9.2887    1.8148   58.8727 S.3     1  ZINC000046390957    0.1300
     22 C22        -8.0330    0.6546   58.8957 C.2     1  ZINC000046390957    0.0600
     23 C23        -8.1383   -0.7184   59.5077 C.3     1  ZINC000046390957    0.0000
     24 C24        -9.5818   -1.0207   59.8179 C.ar    1  ZINC000046390957   -0.0900
     25 C25       -10.2092   -0.3869   60.8741 C.ar    1  ZINC000046390957   -0.0900
     26 C26       -11.5332   -0.6643   61.1587 C.ar    1  ZINC000046390957   -0.1200
     27 C27       -12.2299   -1.5750   60.3867 C.ar    1  ZINC000046390957   -0.1200
     28 C28       -11.6028   -2.2081   59.3298 C.ar    1  ZINC000046390957   -0.1200
     29 C29       -10.2800   -1.9276   59.0427 C.ar    1  ZINC000046390957   -0.1100
     30 N30        -6.9841    1.1228   58.3079 N.2     1  ZINC000046390957   -0.4500
     31 H31        -5.5276    1.7705   49.9911 H       1  ZINC000046390957    0.0800
     32 H32        -4.4920    0.3540   50.2900 H       1  ZINC000046390957    0.0700
     33 H33        -5.5409    0.9787   51.5853 H       1  ZINC000046390957    0.0600
     34 H34        -2.5308    1.6854   49.5499 H       1  ZINC000046390957    0.1300
     35 H35        -0.7161    3.1683   50.3015 H       1  ZINC000046390957    0.1300
     36 H36        -0.9697    4.4816   52.3673 H       1  ZINC000046390957    0.1300
     37 H37        -3.5287    5.5102   53.8092 H       1  ZINC000046390957    0.0700
     38 H38        -3.7292    4.0072   54.7415 H       1  ZINC000046390957    0.0600
     39 H39        -2.1054    4.6958   54.5015 H       1  ZINC000046390957    0.0700
     40 H40        -5.2279    2.1169   53.7775 H       1  ZINC000046390957    0.4100
     41 H41        -8.6487    3.2010   51.9761 H       1  ZINC000046390957    0.0800
     42 H42        -8.0257    1.7338   52.7685 H       1  ZINC000046390957    0.0800
     43 H43        -9.3503    2.6562   53.5187 H       1  ZINC000046390957    0.0800
     44 H44        -5.1484    2.2806   56.8834 H       1  ZINC000046390957    0.1200
     45 H45        -5.4810    3.7834   57.7774 H       1  ZINC000046390957    0.1300
     46 H46        -8.5081    3.9409   57.6978 H       1  ZINC000046390957    0.1800
     47 H47        -7.7545   -1.4594   58.8064 H       1  ZINC000046390957    0.1000
     48 H48        -7.5543   -0.7521   60.4275 H       1  ZINC000046390957    0.1000
     49 H49        -9.6647    0.3246   61.4772 H       1  ZINC000046390957    0.1200
     50 H50       -12.0231   -0.1696   61.9843 H       1  ZINC000046390957    0.1200
     51 H51       -13.2642   -1.7921   60.6095 H       1  ZINC000046390957    0.1200
     52 H52       -12.1471   -2.9198   58.7269 H       1  ZINC000046390957    0.1200
     53 H53        -9.7901   -2.4222   58.2171 H       1  ZINC000046390957    0.1200
@<TRIPOS>BOND
     1     1     2    1
     2     1    31    1
     3     1    32    1
     4     1    33    1
     5     2     8   ar
     6     2     3   ar
     7     3     4   ar
     8     3    34    1
     9     4     5   ar
    10     4    35    1
    11     5     6   ar
    12     5    36    1
    13     6     7    1
    14     6     8   ar
    15     7    37    1
    16     7    38    1
    17     7    39    1
    18     8     9    1
    19     9    10   am
    20     9    40    1
    21    10    11    2
    22    10    12    1
    23    12    13    1
    24    12    14    1
    25    12    15    1
    26    14    41    1
    27    14    42    1
    28    14    43    1
    29    15    16    1
    30    16    17    2
    31    16    18    1
    32    18    19    1
    33    18    44    1
    34    18    45    1
    35    19    30    1
    36    19    20    2
    37    20    21    1
    38    20    46    1
    39    21    22    1
    40    22    23    1
    41    22    30    2
    42    23    24    1
    43    23    47    1
    44    23    48    1
    45    24    29   ar
    46    24    25   ar
    47    25    26   ar
    48    25    49    1
    49    26    27   ar
    50    26    50    1
    51    27    28   ar
    52    27    51    1
    53    28    29   ar
    54    28    52    1
    55    29    53    1
@<TRIPOS>SUBSTRUCTURE
     1 ZINC000046390957        1 TEMP              0 ****  ****    0 ROOT


##########                                Name:    ZINC000637608314
##########                DOCK_Rotatable_Bonds:                   9
##########                         Heavy_Atoms:                  28
##########                    Molecular_Weight:             387.479
##########                DOCK_Rotatable_Bonds:                   9
##########                       Formal_Charge:           0.0499991
##########                     HBond_Acceptors:                   7
##########                        HBond_Donors:                   2
##########                         Heavy_Atoms:                  28
##########                          Grid_Score:          -35.410866
##########                     Grid_vdw_energy:          -34.039013
##########                      Grid_es_energy:           -1.371851
##########           Internal_energy_repulsive:           28.755005

@<TRIPOS>MOLECULE
ZINC000637608314
 57 59 1 0 0
SMALL
USER_CHARGES


@<TRIPOS>ATOM
      1 C1         -7.4575    4.3396   50.5907 C.3     1  ZINC000637608314   -0.1400
      2 C2         -6.6373    3.5780   51.6339 C.3     1  ZINC000637608314   -0.0400
      3 C3         -5.3635    3.0345   50.9836 C.3     1  ZINC000637608314   -0.1500
      4 C4         -6.2629    4.5231   52.7774 C.3     1  ZINC000637608314   -0.1500
      5 C5         -7.4529    2.4324   52.1757 C.2     1  ZINC000637608314    0.1900
      6 C6         -8.6570    2.6774   52.7434 C.2     1  ZINC000637608314   -0.2400
      7 C7         -9.4210    1.6163   53.2492 C.2     1  ZINC000637608314    0.0200
      8 C8         -8.9364    0.3444   53.1613 C.2     1  ZINC000637608314   -0.2400
      9 C9         -9.7376   -0.8143   53.6967 C.3     1  ZINC000637608314    0.2100
     10 N10       -10.2182   -0.4950   55.0433 N.am    1  ZINC000637608314   -0.7300
     11 C11       -10.4155   -1.4816   55.9400 C.2     1  ZINC000637608314    0.7100
     12 O12       -10.1960   -2.6368   55.6310 O.2     1  ZINC000637608314   -0.5900
     13 N13       -10.8562   -1.1876   57.1793 N.am    1  ZINC000637608314   -0.6200
     14 C14       -11.0690   -2.2598   58.1546 C.3     1  ZINC000637608314    0.2000
     15 C15       -12.4166   -2.8921   57.9200 C.2     1  ZINC000637608314   -0.0400
     16 C16       -13.5558   -2.5774   58.5625 C.2     1  ZINC000637608314   -0.1900
     17 C17       -14.5683   -3.4098   58.0324 C.2     1  ZINC000637608314   -0.2200
     18 C18       -13.9874   -4.1833   57.0977 C.2     1  ZINC000637608314   -0.0300
     19 O19       -12.6852   -3.8613   57.0300 O.3     1  ZINC000637608314   -0.1700
     20 C20       -11.1224    0.2042   57.5511 C.3     1  ZINC000637608314    0.1300
     21 C21        -9.9741    0.7301   58.4145 C.3     1  ZINC000637608314    0.0700
     22 H22       -10.2690    1.6641   58.8929 H       1  ZINC000637608314    0.0900
     23 C23        -8.7241    0.9621   57.5389 C.3     1  ZINC000637608314   -0.1500
     24 C24        -7.5768    0.4792   58.4676 C.3     1  ZINC000637608314   -0.1600
     25 C25        -8.2764   -0.6799   59.2211 C.3     1  ZINC000637608314    0.0500
     26 O26        -9.6324   -0.2397   59.4118 O.3     1  ZINC000637608314   -0.3800
     27 C27        -7.6825    0.1257   52.5657 C.2     1  ZINC000637608314    0.5300
     28 O28        -7.2372   -1.0076   52.4801 O.2     1  ZINC000637608314   -0.5400
     29 N29        -6.9747    1.1651   52.0840 N.am    1  ZINC000637608314   -0.6000
     30 H30        -7.7242    3.6664   49.7760 H       1  ZINC000637608314    0.0700
     31 H31        -8.3649    4.7268   51.0541 H       1  ZINC000637608314    0.0700
     32 H32        -6.8676    5.1682   50.1990 H       1  ZINC000637608314    0.0700
     33 H33        -4.7736    3.8631   50.5919 H       1  ZINC000637608314    0.0700
     34 H34        -4.7791    2.4920   51.7268 H       1  ZINC000637608314    0.0600
     35 H35        -5.6302    2.3612   50.1689 H       1  ZINC000637608314    0.0700
     36 H36        -7.1704    4.9102   53.2408 H       1  ZINC000637608314    0.0700
     37 H37        -5.6786    3.9805   53.5206 H       1  ZINC000637608314    0.0600
     38 H38        -5.6730    5.3517   52.3856 H       1  ZINC000637608314    0.0700
     39 H39        -9.0287    3.6894   52.8069 H       1  ZINC000637608314    0.1500
     40 H40       -10.3825    1.8042   53.7039 H       1  ZINC000637608314    0.1400
     41 H41       -10.5887   -1.0008   53.0419 H       1  ZINC000637608314    0.0800
     42 H42        -9.1083   -1.7034   53.7369 H       1  ZINC000637608314    0.0800
     43 H43       -10.3945    0.4266   55.2895 H       1  ZINC000637608314    0.4000
     44 H44       -10.2895   -3.0134   58.0421 H       1  ZINC000637608314    0.1200
     45 H45       -11.0321   -1.8467   59.1626 H       1  ZINC000637608314    0.0900
     46 H46       -13.6741   -1.8324   59.3353 H       1  ZINC000637608314    0.1500
     47 H47       -15.6085   -3.4224   58.3225 H       1  ZINC000637608314    0.1500
     48 H48       -14.4845   -4.9332   56.5004 H       1  ZINC000637608314    0.2000
     49 H49       -11.2067    0.8112   56.6496 H       1  ZINC000637608314    0.0800
     50 H50       -12.0544    0.2581   58.1138 H       1  ZINC000637608314    0.1000
     51 H51        -8.7686    0.3593   56.6317 H       1  ZINC000637608314    0.0800
     52 H52        -8.6096    2.0190   57.2983 H       1  ZINC000637608314    0.0900
     53 H53        -6.7286    0.1154   57.8876 H       1  ZINC000637608314    0.0800
     54 H54        -7.2707    1.2670   59.1559 H       1  ZINC000637608314    0.0800
     55 H55        -8.2540   -1.5893   58.6207 H       1  ZINC000637608314    0.0600
     56 H56        -7.7956   -0.8496   60.1845 H       1  ZINC000637608314    0.0800
     57 H57        -6.1100    1.0074   51.6737 H       1  ZINC000637608314    0.4100
@<TRIPOS>BOND
     1     1     2    1
     2     1    30    1
     3     1    31    1
     4     1    32    1
     5     2     3    1
     6     2     4    1
     7     2     5    1
     8     3    33    1
     9     3    34    1
    10     3    35    1
    11     4    36    1
    12     4    37    1
    13     4    38    1
    14     5    29    1
    15     5     6    2
    16     6     7    1
    17     6    39    1
    18     7     8    2
    19     7    40    1
    20     8     9    1
    21     8    27    1
    22     9    10    1
    23     9    41    1
    24     9    42    1
    25    10    11   am
    26    10    43    1
    27    11    12    2
    28    11    13   am
    29    13    14    1
    30    13    20    1
    31    14    15    1
    32    14    44    1
    33    14    45    1
    34    15    19    1
    35    15    16    2
    36    16    17    1
    37    16    46    1
    38    17    18    2
    39    17    47    1
    40    18    19    1
    41    18    48    1
    42    20    21    1
    43    20    49    1
    44    20    50    1
    45    21    22    1
    46    21    26    1
    47    21    23    1
    48    23    24    1
    49    23    51    1
    50    23    52    1
    51    24    25    1
    52    24    53    1
    53    24    54    1
    54    25    26    1
    55    25    55    1
    56    25    56    1
    57    27    28    2
    58    27    29   am
    59    29    57    1
@<TRIPOS>SUBSTRUCTURE
     1 ZINC000637608314        1 TEMP              0 ****  ****    0 ROOT


##########                                Name:    ZINC000546142192
##########                DOCK_Rotatable_Bonds:                  12
##########                         Heavy_Atoms:                  31
##########                    Molecular_Weight:             420.511
##########                DOCK_Rotatable_Bonds:                  12
##########                       Formal_Charge:          -0.0599997
##########                     HBond_Acceptors:                   7
##########                        HBond_Donors:                   2
##########                         Heavy_Atoms:                  31
##########                          Grid_Score:          -35.344700
##########                     Grid_vdw_energy:          -33.201504
##########                      Grid_es_energy:           -2.143198
##########           Internal_energy_repulsive:           13.193129

@<TRIPOS>MOLECULE
ZINC000546142192
 59 61 1 0 0
SMALL
USER_CHARGES


@<TRIPOS>ATOM
      1 C1         -5.4530    1.4292   50.1709 C.3     1  ZINC000546142192    0.0300
      2 O2         -4.4795    1.6823   51.2181 O.3     1  ZINC000546142192   -0.3600
      3 C3         -4.1925    2.9659   51.4862 C.2     1  ZINC000546142192    0.4600
      4 O4         -4.6759    3.8460   50.8142 O.2     1  ZINC000546142192   -0.5100
      5 C5         -3.2673    3.3091   52.6252 C.3     1  ZINC000546142192   -0.0800
      6 H6         -3.2435    2.4828   53.3355 H       1  ZINC000546142192    0.1100
      7 C7         -1.8585    3.5551   52.0815 C.3     1  ZINC000546142192   -0.1500
      8 C8         -3.7705    4.5715   53.3281 C.3     1  ZINC000546142192   -0.0600
      9 C9         -4.5842    4.1835   54.5359 C.ar    1  ZINC000546142192   -0.1000
     10 C10        -3.9482    3.7783   55.6949 C.ar    1  ZINC000546142192   -0.0900
     11 C11        -4.6910    3.4225   56.8037 C.ar    1  ZINC000546142192   -0.1200
     12 C12        -6.0778    3.4721   56.7535 C.ar    1  ZINC000546142192    0.1600
     13 N13        -6.8334    3.1127   57.8753 N.am    1  ZINC000546142192   -0.6900
     14 C14        -7.1852    1.8258   58.0667 C.2     1  ZINC000546142192    0.7100
     15 O15        -6.8461    0.9772   57.2647 O.2     1  ZINC000546142192   -0.5700
     16 N16        -7.9129    1.4796   59.1471 N.am    1  ZINC000546142192   -0.7400
     17 C17        -8.2966    0.0810   59.3542 C.3     1  ZINC000546142192    0.2300
     18 C18        -9.7418    0.0140   59.7763 C.2     1  ZINC000546142192    0.1800
     19 N19       -10.7687   -0.0115   58.9715 N.2     1  ZINC000546142192   -0.4700
     20 C20       -11.8964   -0.0723   59.6951 C.2     1  ZINC000546142192   -0.0300
     21 C21       -11.5553   -0.0850   60.9979 C.2     1  ZINC000546142192   -0.0400
     22 N22       -10.1884   -0.0357   61.0498 N.pl3   1  ZINC000546142192   -0.4500
     23 C23        -9.3640   -0.0292   62.2609 C.3     1  ZINC000546142192    0.1100
     24 C24        -9.3796    1.3693   62.8809 C.3     1  ZINC000546142192   -0.0900
     25 C25        -8.4535    1.4023   64.0694 C.ar    1  ZINC000546142192   -0.0900
     26 C26        -7.5263    2.4198   64.1952 C.ar    1  ZINC000546142192   -0.1100
     27 C27        -6.6769    2.4500   65.2854 C.ar    1  ZINC000546142192   -0.1200
     28 C28        -6.7551    1.4628   66.2500 C.ar    1  ZINC000546142192   -0.1200
     29 C29        -7.6829    0.4459   66.1247 C.ar    1  ZINC000546142192   -0.1200
     30 C30        -8.5352    0.4181   65.0367 C.ar    1  ZINC000546142192   -0.1100
     31 C31        -6.7134    3.8795   55.5880 C.ar    1  ZINC000546142192   -0.1500
     32 C32        -5.9649    4.2390   54.4844 C.ar    1  ZINC000546142192   -0.0900
     33 H33        -5.0946    1.8514   49.2321 H       1  ZINC000546142192    0.0600
     34 H34        -5.5922    0.3543   50.0562 H       1  ZINC000546142192    0.1000
     35 H35        -6.4029    1.8921   50.4383 H       1  ZINC000546142192    0.0600
     36 H36        -1.8823    4.3815   51.3712 H       1  ZINC000546142192    0.0600
     37 H37        -1.1895    3.8034   52.9054 H       1  ZINC000546142192    0.0800
     38 H38        -1.5001    2.6558   51.5808 H       1  ZINC000546142192    0.0700
     39 H39        -2.9197    5.1761   53.6421 H       1  ZINC000546142192    0.0800
     40 H40        -4.3914    5.1469   52.6413 H       1  ZINC000546142192    0.0800
     41 H41        -2.8696    3.7396   55.7332 H       1  ZINC000546142192    0.1300
     42 H42        -4.1938    3.1058   57.7085 H       1  ZINC000546142192    0.1400
     43 H43        -7.1040    3.7898   58.5151 H       1  ZINC000546142192    0.4100
     44 H44        -8.1823    2.1564   59.7875 H       1  ZINC000546142192    0.4000
     45 H45        -8.1634   -0.4737   58.4253 H       1  ZINC000546142192    0.0800
     46 H46        -7.6703   -0.3563   60.1316 H       1  ZINC000546142192    0.1000
     47 H47       -12.9018   -0.1052   59.3020 H       1  ZINC000546142192    0.1700
     48 H48       -12.2303   -0.1297   61.8397 H       1  ZINC000546142192    0.1800
     49 H49        -9.7635   -0.7483   62.9761 H       1  ZINC000546142192    0.1000
     50 H50        -8.3402   -0.3019   62.0050 H       1  ZINC000546142192    0.0900
     51 H51        -9.0480    2.0984   62.1415 H       1  ZINC000546142192    0.0800
     52 H52       -10.3922    1.6130   63.2025 H       1  ZINC000546142192    0.0800
     53 H53        -7.4652    3.1909   63.4416 H       1  ZINC000546142192    0.1200
     54 H54        -5.9520    3.2446   65.3832 H       1  ZINC000546142192    0.1200
     55 H55        -6.0909    1.4861   67.1013 H       1  ZINC000546142192    0.1200
     56 H56        -7.7437   -0.3254   66.8782 H       1  ZINC000546142192    0.1200
     57 H57        -9.2601   -0.3765   64.9387 H       1  ZINC000546142192    0.1200
     58 H58        -7.7920    3.9192   55.5460 H       1  ZINC000546142192    0.1300
     59 H59        -6.4586    4.5564   53.5777 H       1  ZINC000546142192    0.1300
@<TRIPOS>BOND
     1     1     2    1
     2     1    33    1
     3     1    34    1
     4     1    35    1
     5     2     3    1
     6     3     4    2
     7     3     5    1
     8     5     6    1
     9     5     7    1
    10     5     8    1
    11     7    36    1
    12     7    37    1
    13     7    38    1
    14     8     9    1
    15     8    39    1
    16     8    40    1
    17     9    32   ar
    18     9    10   ar
    19    10    11   ar
    20    10    41    1
    21    11    12   ar
    22    11    42    1
    23    12    13    1
    24    12    31   ar
    25    13    14   am
    26    13    43    1
    27    14    15    2
    28    14    16   am
    29    16    17    1
    30    16    44    1
    31    17    18    1
    32    17    45    1
    33    17    46    1
    34    18    22    1
    35    18    19    2
    36    19    20    1
    37    20    21    2
    38    20    47    1
    39    21    22    1
    40    21    48    1
    41    22    23    1
    42    23    24    1
    43    23    49    1
    44    23    50    1
    45    24    25    1
    46    24    51    1
    47    24    52    1
    48    25    30   ar
    49    25    26   ar
    50    26    27   ar
    51    26    53    1
    52    27    28   ar
    53    27    54    1
    54    28    29   ar
    55    28    55    1
    56    29    30   ar
    57    29    56    1
    58    30    57    1
    59    31    32   ar
    60    31    58    1
    61    32    59    1
@<TRIPOS>SUBSTRUCTURE
     1 ZINC000546142192        1 TEMP              0 ****  ****    0 ROOT


##########                                Name:     oleObject79.pdb
##########                DOCK_Rotatable_Bonds:                  12
##########                         Heavy_Atoms:                  53
##########                    Molecular_Weight:             725.376
##########                DOCK_Rotatable_Bonds:                  12
##########                       Formal_Charge:          0.00050066
##########                     HBond_Acceptors:                   8
##########                        HBond_Donors:                   4
##########                         Heavy_Atoms:                  53
##########                          Grid_Score:          -35.308857
##########                     Grid_vdw_energy:          -34.633747
##########                      Grid_es_energy:           -0.675112
##########           Internal_energy_repulsive:           37.709171

@<TRIPOS>MOLECULE
oleObject79.pdb
 102 108 1 0 0
SMALL
NO_CHARGES


@<TRIPOS>ATOM
      1 C          -8.4613    3.4416   58.3331 C.ar    1  UNL        -0.0620
      2 C          -9.0536    4.4531   57.5643 C.ar    1  UNL        -0.0590
      3 C          -9.3716    4.2370   56.2091 C.ar    1  UNL        -0.0456
      4 C          -9.0923    2.9789   55.6125 C.ar    1  UNL        -0.0185
      5 C          -8.4959    1.9731   56.4037 C.ar    1  UNL        -0.0565
      6 C          -8.1819    2.1998   57.7513 C.ar    1  UNL        -0.0619
      7 C          -9.4669    2.6650   54.1499 C.3     1  UNL         0.0931
      8 C          -8.3542    2.9330   53.1192 C.ar    1  UNL         0.0683
      9 C          -8.6449    3.4908   51.8477 C.ar    1  UNL        -0.0272
     10 C          -7.5812    3.7104   50.9522 C.ar    1  UNL        -0.0559
     11 C          -6.2771    3.3755   51.3437 C.ar    1  UNL        -0.0435
     12 C          -6.0788    2.8306   52.6205 C.ar    1  UNL         0.0272
     13 N          -7.0896    2.6157   53.4828 N.ar    1  UNL        -0.2587
     14 C         -10.0635    3.8562   51.4227 C.3     1  UNL        -0.0379
     15 N         -10.1129    1.3278   54.0314 N.am    1  UNL        -0.2918
     16 C         -11.3690    1.0969   54.5965 C.2     1  UNL         0.2179
     17 O         -11.8062    1.8548   55.4465 O.2     1  UNL        -0.2772
     18 C         -11.9590   -0.3282   54.4198 C.3     1  UNL         0.0361
     19 C         -13.4931   -0.3284   54.1620 C.3     1  UNL        -0.0412
     20 C         -14.3410   -0.0009   55.4222 C.3     1  UNL        -0.0453
     21 C         -13.9857   -0.8539   56.6765 C.3     1  UNL        -0.0139
     22 C         -14.6525   -0.2021   57.9196 C.3     1  UNL         0.0171
     23 N         -14.4390   -1.0234   59.1285 N.pl3   1  UNL        -0.3290
     24 C         -15.0168   -2.3790   59.0436 C.3     1  UNL         0.0115
     25 C         -14.4490   -3.1372   57.8206 C.3     1  UNL        -0.0368
     26 C         -14.5563   -2.3000   56.5212 C.3     1  UNL        -0.0446
     27 C         -13.9430   -0.4716   60.3144 C.ar    1  UNL         0.0476
     28 C         -12.5785   -0.1304   60.3903 C.ar    1  UNL        -0.0375
     29 C         -12.0305    0.3980   61.5692 C.ar    1  UNL        -0.0388
     30 C         -12.8293    0.5773   62.7090 C.ar    1  UNL         0.0318
     31 C         -14.1970    0.2557   62.6364 C.ar    1  UNL        -0.0202
     32 C         -14.7527   -0.2691   61.4572 C.ar    1  UNL         0.0636
     33 CL        -16.4503   -0.7130   61.5044 Cl      1  UNL        -0.0822
     34 N         -12.2505    1.1043   63.8618 N.pl3   1  UNL        -0.3149
     35 C         -10.9408    1.4870   64.1466 C.ar    1  UNL         0.0302
     36 C          -9.8533    0.6057   64.0026 C.ar    1  UNL        -0.0402
     37 C          -8.5445    1.0355   64.2737 C.ar    1  UNL        -0.0525
     38 C          -8.2765    2.3630   64.6905 C.ar    1  UNL        -0.0182
     39 C          -9.3812    3.2421   64.8123 C.ar    1  UNL        -0.0525
     40 C         -10.6895    2.8124   64.5360 C.ar    1  UNL        -0.0402
     41 C          -6.8776    2.8240   64.9813 C.ar    1  UNL        -0.0177
     42 C          -6.6071    4.1662   65.3514 C.ar    1  UNL        -0.0439
     43 C          -5.2972    4.6169   65.6253 C.ar    1  UNL         0.0111
     44 C          -4.2320    3.6983   65.5241 C.ar    1  UNL        -0.0518
     45 C          -4.4736    2.3655   65.1613 C.ar    1  UNL        -0.0609
     46 C          -5.7804    1.9329   64.8940 C.ar    1  UNL        -0.0543
     47 C          -5.0608    5.9455   65.9927 C.2     1  UNL         0.1014
     48 N          -3.8845    6.3861   66.2506 N.3     1  UNL        -0.2892
     49 N          -6.0706    6.8201   66.0966 N.3     1  UNL        -0.2870
     50 C         -12.4388   -0.8525   56.8824 C.3     1  UNL        -0.0453
     51 C         -11.6450   -1.2568   55.6217 C.3     1  UNL        -0.0412
     52 C          -9.3989    0.2757   53.2753 C.3     1  UNL         0.0037
     53 C         -10.0344    5.3747   55.4396 C.3     1  UNL        -0.0394
     54 H          -8.2232    3.6174   59.3776 H       1  UNL         0.0623
     55 H          -9.2726    5.4105   58.0283 H       1  UNL         0.0626
     56 H          -8.2732    1.0028   55.9728 H       1  UNL         0.0627
     57 H          -7.7254    1.4120   58.3433 H       1  UNL         0.0623
     58 H         -10.2382    3.3854   53.8728 H       1  UNL         0.0626
     59 H          -7.7609    4.1350   49.9687 H       1  UNL         0.0627
     60 H          -5.4378    3.5356   50.6734 H       1  UNL         0.0639
     61 H          -5.0818    2.5582   52.9648 H       1  UNL         0.0840
     62 H         -10.7150    2.9740   51.4144 H       1  UNL         0.0280
     63 H         -10.0849    4.2856   50.4134 H       1  UNL         0.0280
     64 H         -10.5034    4.5978   52.1007 H       1  UNL         0.0280
     65 H         -11.4843   -0.7535   53.5272 H       1  UNL         0.0401
     66 H         -13.7858   -1.3186   53.7902 H       1  UNL         0.0275
     67 H         -13.7358    0.3808   53.3602 H       1  UNL         0.0275
     68 H         -15.4050   -0.1179   55.1794 H       1  UNL         0.0273
     69 H         -14.2162    1.0601   55.6685 H       1  UNL         0.0273
     70 H         -15.7301   -0.0912   57.7419 H       1  UNL         0.0474
     71 H         -14.2358    0.8033   58.0643 H       1  UNL         0.0474
     72 H         -16.1061   -2.2976   58.9379 H       1  UNL         0.0468
     73 H         -14.8183   -2.9498   59.9591 H       1  UNL         0.0468
     74 H         -14.9879   -4.0844   57.6945 H       1  UNL         0.0283
     75 H         -13.4007   -3.4002   58.0047 H       1  UNL         0.0283
     76 H         -15.6185   -2.2358   56.2505 H       1  UNL         0.0273
     77 H         -14.0662   -2.8351   55.6996 H       1  UNL         0.0273
     78 H         -11.9354   -0.2679   59.5259 H       1  UNL         0.0644
     79 H         -10.9752    0.6541   61.6006 H       1  UNL         0.0643
     80 H         -14.8404    0.4148   63.4961 H       1  UNL         0.0659
     81 H         -12.9006    1.2540   64.6226 H       1  UNL         0.1528
     82 H         -10.0117   -0.4117   63.6620 H       1  UNL         0.0643
     83 H          -7.7339    0.3214   64.1684 H       1  UNL         0.0630
     84 H          -9.2257    4.2761   65.1034 H       1  UNL         0.0630
     85 H         -11.5135    3.5139   64.6315 H       1  UNL         0.0643
     86 H          -7.4325    4.8664   65.4343 H       1  UNL         0.0637
     87 H          -3.2128    4.0083   65.7382 H       1  UNL         0.0630
     88 H          -3.6457    1.6661   65.0860 H       1  UNL         0.0623
     89 H          -5.9366    0.9001   64.5985 H       1  UNL         0.0629
     90 H          -3.4392    6.7444   65.4032 H       1  UNL         0.1889
     91 H          -6.3526    7.3686   65.2862 H       1  UNL         0.1258
     92 H          -6.9190    6.5495   66.5909 H       1  UNL         0.1258
     93 H         -12.1479   -1.5077   57.7110 H       1  UNL         0.0273
     94 H         -12.1256    0.1552   57.1785 H       1  UNL         0.0273
     95 H         -11.8845   -2.2924   55.3523 H       1  UNL         0.0275
     96 H         -10.5744   -1.2544   55.8511 H       1  UNL         0.0275
     97 H          -9.3197   -0.6430   53.8671 H       1  UNL         0.0433
     98 H          -8.3831    0.5903   53.0101 H       1  UNL         0.0433
     99 H          -9.9496    0.0567   52.3521 H       1  UNL         0.0433
    100 H         -10.1059    6.2878   56.0436 H       1  UNL         0.0280
    101 H         -11.0539    5.1030   55.1382 H       1  UNL         0.0280
    102 H          -9.4644    5.6263   54.5364 H       1  UNL         0.0280
@<TRIPOS>BOND
     1     1     2   ar
     2     1     6   ar
     3     1    54    1
     4     2     3   ar
     5     2    55    1
     6     3     4   ar
     7     3    53    1
     8     4     5   ar
     9     4     7    1
    10     5     6   ar
    11     5    56    1
    12     6    57    1
    13     7     8    1
    14     7    15    1
    15     7    58    1
    16     8     9   ar
    17     8    13   ar
    18     9    10   ar
    19     9    14    1
    20    10    11   ar
    21    10    59    1
    22    11    12   ar
    23    11    60    1
    24    12    13   ar
    25    12    61    1
    26    14    62    1
    27    14    63    1
    28    14    64    1
    29    15    16   am
    30    15    52    1
    31    16    17    2
    32    16    18    1
    33    18    19    1
    34    18    51    1
    35    18    65    1
    36    19    20    1
    37    19    66    1
    38    19    67    1
    39    20    21    1
    40    20    68    1
    41    20    69    1
    42    21    22    1
    43    21    26    1
    44    21    50    1
    45    22    23    1
    46    22    70    1
    47    22    71    1
    48    23    24    1
    49    23    27    1
    50    24    25    1
    51    24    72    1
    52    24    73    1
    53    25    26    1
    54    25    74    1
    55    25    75    1
    56    26    76    1
    57    26    77    1
    58    27    28   ar
    59    27    32   ar
    60    28    29   ar
    61    28    78    1
    62    29    30   ar
    63    29    79    1
    64    30    31   ar
    65    30    34    1
    66    31    32   ar
    67    31    80    1
    68    32    33    1
    69    34    35    1
    70    34    81    1
    71    35    36   ar
    72    35    40   ar
    73    36    37   ar
    74    36    82    1
    75    37    38   ar
    76    37    83    1
    77    38    39   ar
    78    38    41    1
    79    39    40   ar
    80    39    84    1
    81    40    85    1
    82    41    42   ar
    83    41    46   ar
    84    42    43   ar
    85    42    86    1
    86    43    44   ar
    87    43    47    1
    88    44    45   ar
    89    44    87    1
    90    45    46   ar
    91    45    88    1
    92    46    89    1
    93    47    48    1
    94    47    49    1
    95    48    90    1
    96    49    91    1
    97    49    92    1
    98    50    51    1
    99    50    93    1
   100    50    94    1
   101    51    95    1
   102    51    96    1
   103    52    97    1
   104    52    98    1
   105    52    99    1
   106    53   100    1
   107    53   101    1
   108    53   102    1
@<TRIPOS>SUBSTRUCTURE
     1 UNL         1 TEMP              0 ****  ****    0 ROOT


##########                                Name:    ZINC000912668252
##########                DOCK_Rotatable_Bonds:                  10
##########                         Heavy_Atoms:                  30
##########                    Molecular_Weight:             411.433
##########                DOCK_Rotatable_Bonds:                  10
##########                       Formal_Charge:           0.0199993
##########                     HBond_Acceptors:                   8
##########                        HBond_Donors:                   2
##########                         Heavy_Atoms:                  30
##########                          Grid_Score:          -35.211323
##########                     Grid_vdw_energy:          -33.211704
##########                      Grid_es_energy:           -1.999620
##########           Internal_energy_repulsive:           15.658044

@<TRIPOS>MOLECULE
ZINC000912668252
 52 54 1 0 0
SMALL
USER_CHARGES


@<TRIPOS>ATOM
      1 C1        -10.5175    3.1834   58.9164 C.3     1  ZINC000912668252   -0.1700
      2 C2         -9.0269    2.8664   58.7805 C.3     1  ZINC000912668252    0.1100
      3 N3         -8.8117    2.0283   57.5985 N.am    1  ZINC000912668252   -0.6100
      4 C4         -8.4133    0.6274   57.7564 C.3     1  ZINC000912668252    0.1000
      5 C5         -9.1554    0.0173   58.9473 C.3     1  ZINC000912668252   -0.1800
      6 C6         -8.9803    2.5460   56.3655 C.2     1  ZINC000912668252    0.5600
      7 O7         -9.3110    3.7083   56.2344 O.2     1  ZINC000912668252   -0.5300
      8 C8         -8.7631    1.7001   55.1725 C.ar    1  ZINC000912668252   -0.1100
      9 C9         -9.7180    0.7512   54.8035 C.ar    1  ZINC000912668252   -0.1100
     10 C10        -9.5130   -0.0368   53.6891 C.ar    1  ZINC000912668252   -0.1000
     11 C11        -8.3639    0.1098   52.9351 C.ar    1  ZINC000912668252   -0.1200
     12 C12        -7.4070    1.0518   53.2942 C.ar    1  ZINC000912668252    0.1400
     13 N13        -6.2453    1.1966   52.5271 N.am    1  ZINC000912668252   -0.6700
     14 C14        -6.2340    2.0369   51.4734 C.2     1  ZINC000912668252    0.5200
     15 O15        -7.2304    2.6676   51.1899 O.2     1  ZINC000912668252   -0.4900
     16 C16        -4.9831    2.1928   50.6475 C.3     1  ZINC000912668252    0.0500
     17 O17        -3.8192    1.9518   51.4816 O.3     1  ZINC000912668252   -0.3300
     18 C18        -2.7978    2.8255   51.3743 C.2     1  ZINC000912668252    0.5400
     19 O19        -2.8390    3.8850   51.9691 O.2     1  ZINC000912668252   -0.4800
     20 C20        -1.6352    2.4972   50.5386 C.2     1  ZINC000912668252    0.0400
     21 C21        -0.3454    2.8231   50.8193 C.2     1  ZINC000912668252   -0.0900
     22 C22         0.4632    2.3262   49.7692 C.ar    1  ZINC000912668252   -0.1000
     23 C23         1.8412    2.3599   49.5182 C.ar    1  ZINC000912668252   -0.0900
     24 C24         2.3402    1.7775   48.3873 C.ar    1  ZINC000912668252    0.0700
     25 F25         3.6693    1.8111   48.1472 F       1  ZINC000912668252   -0.1400
     26 C26         1.4915    1.1500   47.4814 C.ar    1  ZINC000912668252   -0.1100
     27 C27         0.1339    1.1051   47.7072 C.ar    1  ZINC000912668252   -0.1000
     28 C28        -0.3976    1.6914   48.8522 C.ar    1  ZINC000912668252    0.1100
     29 N29        -1.6771    1.8026   49.3448 N.pl3   1  ZINC000912668252   -0.5600
     30 C30        -7.6059    1.8516   54.4084 C.ar    1  ZINC000912668252   -0.0700
     31 H31       -10.6777    3.8071   59.7959 H       1  ZINC000912668252    0.0700
     32 H32       -10.8586    3.7142   58.0276 H       1  ZINC000912668252    0.0600
     33 H33       -11.0783    2.2547   59.0226 H       1  ZINC000912668252    0.0600
     34 H34        -8.4662    3.7952   58.6743 H       1  ZINC000912668252    0.0800
     35 H35        -8.6858    2.3357   59.6694 H       1  ZINC000912668252    0.0900
     36 H36        -8.6627    0.0744   56.8509 H       1  ZINC000912668252    0.0900
     37 H37        -7.3388    0.5727   57.9312 H       1  ZINC000912668252    0.0800
     38 H38        -8.6441    0.2878   59.8712 H       1  ZINC000912668252    0.0600
     39 H39       -10.1766    0.3974   58.9724 H       1  ZINC000912668252    0.0700
     40 H40        -9.1739   -1.0679   58.8467 H       1  ZINC000912668252    0.0700
     41 H41       -10.6170    0.6335   55.3903 H       1  ZINC000912668252    0.1400
     42 H42       -10.2528   -0.7707   53.4055 H       1  ZINC000912668252    0.1400
     43 H43        -8.2088   -0.5099   52.0644 H       1  ZINC000912668252    0.1300
     44 H44        -5.4484    0.6921   52.7538 H       1  ZINC000912668252    0.4200
     45 H45        -4.9974    1.4748   49.8274 H       1  ZINC000912668252    0.1100
     46 H46        -4.9379    3.2043   50.2440 H       1  ZINC000912668252    0.1100
     47 H47         0.0001    3.3646   51.6875 H       1  ZINC000912668252    0.1700
     48 H48         2.5072    2.8450   50.2164 H       1  ZINC000912668252    0.1400
     49 H49         1.9012    0.6941   46.5923 H       1  ZINC000912668252    0.1400
     50 H50        -0.5170    0.6162   46.9975 H       1  ZINC000912668252    0.1400
     51 H51        -2.4772    1.4525   48.9228 H       1  ZINC000912668252    0.4300
     52 H52        -6.8635    2.5842   54.6890 H       1  ZINC000912668252    0.1400
@<TRIPOS>BOND
     1     1     2    1
     2     1    31    1
     3     1    32    1
     4     1    33    1
     5     2     3    1
     6     2    34    1
     7     2    35    1
     8     3     4    1
     9     3     6   am
    10     4     5    1
    11     4    36    1
    12     4    37    1
    13     5    38    1
    14     5    39    1
    15     5    40    1
    16     6     7    2
    17     6     8    1
    18     8    30   ar
    19     8     9   ar
    20     9    10   ar
    21     9    41    1
    22    10    11   ar
    23    10    42    1
    24    11    12   ar
    25    11    43    1
    26    12    13    1
    27    12    30   ar
    28    13    14   am
    29    13    44    1
    30    14    15    2
    31    14    16    1
    32    16    17    1
    33    16    45    1
    34    16    46    1
    35    17    18    1
    36    18    19    2
    37    18    20    1
    38    20    29    1
    39    20    21    2
    40    21    22    1
    41    21    47    1
    42    22    28   ar
    43    22    23   ar
    44    23    24   ar
    45    23    48    1
    46    24    25    1
    47    24    26   ar
    48    26    27   ar
    49    26    49    1
    50    27    28   ar
    51    27    50    1
    52    28    29    1
    53    29    51    1
    54    30    52    1
@<TRIPOS>SUBSTRUCTURE
     1 ZINC000912668252        1 TEMP              0 ****  ****    0 ROOT


##########                                Name:    ZINC000512699033
##########                DOCK_Rotatable_Bonds:                   9
##########                         Heavy_Atoms:                  30
##########                    Molecular_Weight:              405.54
##########                DOCK_Rotatable_Bonds:                   9
##########                       Formal_Charge:           0.0199988
##########                     HBond_Acceptors:                   5
##########                        HBond_Donors:                   2
##########                         Heavy_Atoms:                  30
##########                          Grid_Score:          -35.178299
##########                     Grid_vdw_energy:          -35.553505
##########                      Grid_es_energy:            0.375205
##########           Internal_energy_repulsive:           13.189239

@<TRIPOS>MOLECULE
ZINC000512699033
 61 64 1 0 0
SMALL
USER_CHARGES


@<TRIPOS>ATOM
      1 O1         -9.3223    3.2262   54.7110 O.2     1  ZINC000512699033   -0.5100
      2 C2         -8.9012    2.3364   54.0025 C.2     1  ZINC000512699033    0.5200
      3 C3         -9.8248    1.6433   53.0343 C.3     1  ZINC000512699033   -0.1500
      4 C4         -9.6172    0.1302   53.1254 C.3     1  ZINC000512699033    0.1300
      5 N5         -9.6300   -0.2807   54.5315 N.am    1  ZINC000512699033   -0.7300
      6 C6        -10.7905   -0.6310   55.1206 C.2     1  ZINC000512699033    0.5200
      7 O7        -11.8244   -0.6044   54.4872 O.2     1  ZINC000512699033   -0.5300
      8 C8        -10.8034   -1.0555   56.5666 C.3     1  ZINC000512699033   -0.1100
      9 C9        -12.1176   -0.6163   57.2153 C.3     1  ZINC000512699033   -0.1100
     10 C10       -12.1307   -1.0473   58.6833 C.3     1  ZINC000512699033   -0.1200
     11 C11       -12.0032   -2.5695   58.7691 C.3     1  ZINC000512699033   -0.1200
     12 C12       -10.6890   -3.0087   58.1203 C.3     1  ZINC000512699033   -0.1200
     13 C13       -10.6759   -2.5777   56.6524 C.3     1  ZINC000512699033   -0.1000
     14 N14        -7.6060    1.9712   54.0772 N.am    1  ZINC000512699033   -0.6600
     15 C15        -6.7485    2.6149   54.9763 C.ar    1  ZINC000512699033    0.1700
     16 C16        -6.8867    2.4044   56.3418 C.ar    1  ZINC000512699033   -0.1400
     17 C17        -6.0382    3.0408   57.2267 C.ar    1  ZINC000512699033   -0.1000
     18 C18        -5.0523    3.8872   56.7540 C.ar    1  ZINC000512699033   -0.1400
     19 C19        -4.9120    4.0990   55.3946 C.ar    1  ZINC000512699033   -0.0900
     20 C20        -5.7534    3.4612   54.5044 C.ar    1  ZINC000512699033   -0.1200
     21 C21        -5.5998    3.6925   53.0233 C.3     1  ZINC000512699033    0.0900
     22 N22        -5.0450    2.4864   52.3943 N.3     1  ZINC000512699033   -0.4700
     23 C23        -5.8423    2.0899   51.2133 C.3     1  ZINC000512699033    0.0500
     24 C24        -4.7845    1.4357   50.2952 C.3     1  ZINC000512699033   -0.0900
     25 C25        -3.4962    2.0989   50.7401 C.ar    1  ZINC000512699033   -0.1400
     26 C26        -2.2542    2.1752   50.1463 C.ar    1  ZINC000512699033   -0.0800
     27 C27        -1.2274    2.8596   50.7719 C.ar    1  ZINC000512699033   -0.1400
     28 C28        -1.4488    3.4673   51.9939 C.ar    1  ZINC000512699033   -0.0900
     29 C29        -2.6890    3.3920   52.5933 C.ar    1  ZINC000512699033   -0.1400
     30 C30        -3.7276    2.7020   51.9710 C.ar    1  ZINC000512699033    0.0900
     31 H31       -10.8585    1.8838   53.2826 H       1  ZINC000512699033    0.1100
     32 H32        -9.6070    1.9794   52.0205 H       1  ZINC000512699033    0.1000
     33 H33       -10.4187   -0.3794   52.5906 H       1  ZINC000512699033    0.0800
     34 H34        -8.6582   -0.1325   52.6788 H       1  ZINC000512699033    0.0800
     35 H35        -8.8033   -0.3009   55.0384 H       1  ZINC000512699033    0.4000
     36 H36        -9.9672   -0.5908   57.0891 H       1  ZINC000512699033    0.1000
     37 H37       -12.2085    0.4681   57.1542 H       1  ZINC000512699033    0.0700
     38 H38       -12.9538   -1.0810   56.6928 H       1  ZINC000512699033    0.0700
     39 H39       -11.2946   -0.5826   59.2059 H       1  ZINC000512699033    0.0600
     40 H40       -13.0669   -0.7345   59.1455 H       1  ZINC000512699033    0.0700
     41 H41       -12.0125   -2.8766   59.8149 H       1  ZINC000512699033    0.0600
     42 H42       -12.8394   -3.0342   58.2465 H       1  ZINC000512699033    0.0600
     43 H43        -9.8528   -2.5441   58.6428 H       1  ZINC000512699033    0.0600
     44 H44       -10.5982   -4.0932   58.1815 H       1  ZINC000512699033    0.0700
     45 H45       -11.5122   -3.0423   56.1298 H       1  ZINC000512699033    0.0700
     46 H46        -9.7396   -2.8905   56.1902 H       1  ZINC000512699033    0.0700
     47 H47        -7.2683    1.2624   53.5077 H       1  ZINC000512699033    0.4200
     48 H48        -7.6571    1.7438   56.7116 H       1  ZINC000512699033    0.1500
     49 H49        -6.1453    2.8775   58.2888 H       1  ZINC000512699033    0.1300
     50 H50        -4.3907    4.3842   57.4480 H       1  ZINC000512699033    0.1200
     51 H51        -4.1410    4.7606   55.0284 H       1  ZINC000512699033    0.1200
     52 H52        -6.5738    3.9145   52.5872 H       1  ZINC000512699033    0.0600
     53 H53        -4.9263    4.5328   52.8547 H       1  ZINC000512699033    0.0900
     54 H54        -6.6122    1.3698   51.4906 H       1  ZINC000512699033    0.1000
     55 H55        -6.2834    2.9636   50.7335 H       1  ZINC000512699033    0.0600
     56 H56        -4.7418    0.3592   50.4614 H       1  ZINC000512699033    0.0900
     57 H57        -4.9915    1.6579   49.2483 H       1  ZINC000512699033    0.0800
     58 H58        -2.0826    1.7000   49.1918 H       1  ZINC000512699033    0.1200
     59 H59        -0.2545    2.9185   50.3068 H       1  ZINC000512699033    0.1300
     60 H60        -0.6475    4.0028   52.4813 H       1  ZINC000512699033    0.1300
     61 H61        -2.8554    3.8687   53.5481 H       1  ZINC000512699033    0.1200
@<TRIPOS>BOND
     1     1     2    2
     2     2     3    1
     3     2    14   am
     4     3     4    1
     5     3    31    1
     6     3    32    1
     7     4     5    1
     8     4    33    1
     9     4    34    1
    10     5     6   am
    11     5    35    1
    12     6     7    2
    13     6     8    1
    14     8    13    1
    15     8     9    1
    16     8    36    1
    17     9    10    1
    18     9    37    1
    19     9    38    1
    20    10    11    1
    21    10    39    1
    22    10    40    1
    23    11    12    1
    24    11    41    1
    25    11    42    1
    26    12    13    1
    27    12    43    1
    28    12    44    1
    29    13    45    1
    30    13    46    1
    31    14    15    1
    32    14    47    1
    33    15    20   ar
    34    15    16   ar
    35    16    17   ar
    36    16    48    1
    37    17    18   ar
    38    17    49    1
    39    18    19   ar
    40    18    50    1
    41    19    20   ar
    42    19    51    1
    43    20    21    1
    44    21    22    1
    45    21    52    1
    46    21    53    1
    47    22    30    1
    48    22    23    1
    49    23    24    1
    50    23    54    1
    51    23    55    1
    52    24    25    1
    53    24    56    1
    54    24    57    1
    55    25    30   ar
    56    25    26   ar
    57    26    27   ar
    58    26    58    1
    59    27    28   ar
    60    27    59    1
    61    28    29   ar
    62    28    60    1
    63    29    30   ar
    64    29    61    1
@<TRIPOS>SUBSTRUCTURE
     1 ZINC000512699033        1 TEMP              0 ****  ****    0 ROOT


##########                                Name:    ZINC000562561773
##########                DOCK_Rotatable_Bonds:                   6
##########                         Heavy_Atoms:                  26
##########                    Molecular_Weight:             371.466
##########                DOCK_Rotatable_Bonds:                   6
##########                       Formal_Charge:           0.0199999
##########                     HBond_Acceptors:                   9
##########                        HBond_Donors:                   0
##########                         Heavy_Atoms:                  26
##########                          Grid_Score:          -35.124504
##########                     Grid_vdw_energy:          -35.100143
##########                      Grid_es_energy:           -0.024361
##########           Internal_energy_repulsive:           12.118777

@<TRIPOS>MOLECULE
ZINC000562561773
 47 50 1 0 0
SMALL
USER_CHARGES


@<TRIPOS>ATOM
      1 C1          3.3243    3.8712   50.3014 C.3     1  ZINC000562561773   -0.1100
      2 C2          1.8854    3.5306   50.5929 C.ar    1  ZINC000562561773   -0.0400
      3 C3          1.1469    4.3298   51.4442 C.ar    1  ZINC000562561773   -0.1200
      4 C4         -0.1719    4.0230   51.7153 C.ar    1  ZINC000562561773   -0.0700
      5 C5         -0.7623    2.9048   51.1302 C.ar    1  ZINC000562561773   -0.0300
      6 C6         -2.1799    2.5742   51.4204 C.2     1  ZINC000562561773    0.2200
      7 N7         -2.8830    2.9979   52.4382 N.2     1  ZINC000562561773   -0.3700
      8 O8         -4.0071    2.5456   52.3854 O.3     1  ZINC000562561773    0.0900
      9 C9         -4.1383    1.7701   51.3046 C.2     1  ZINC000562561773    0.1900
     10 C10        -5.3788    1.0265   50.8816 C.3     1  ZINC000562561773   -0.0100
     11 C11        -6.4820    1.2430   51.9194 C.3     1  ZINC000562561773   -0.1200
     12 S12        -7.1381   -0.3596   52.4459 S.3     1  ZINC000562561773    0.0600
     13 C13        -8.7353    0.1321   53.0041 C.2     1  ZINC000562561773    0.2100
     14 N14        -9.8868   -0.1751   52.4471 N.2     1  ZINC000562561773   -0.3300
     15 N15       -10.8584    0.3447   53.1067 N.2     1  ZINC000562561773   -0.0300
     16 N16       -10.4097    1.0105   54.1153 N.2     1  ZINC000562561773   -0.0700
     17 N17        -9.0091    0.8926   54.0905 N.pl3   1  ZINC000562561773   -0.3600
     18 C18        -8.0505    1.4751   55.0327 C.3     1  ZINC000562561773    0.0800
     19 N19        -2.9878    1.7833   50.6786 N.2     1  ZINC000562561773   -0.4600
     20 C20        -0.0193    2.0985   50.2721 C.ar    1  ZINC000562561773   -0.1100
     21 C21         1.3031    2.4163   50.0002 C.ar    1  ZINC000562561773    0.0800
     22 N22         2.0527    1.6106   49.1395 N.3     1  ZINC000562561773   -0.4800
     23 C23         2.2185    0.2446   49.6987 C.3     1  ZINC000562561773    0.0400
     24 C24         2.5717   -0.6076   48.4539 C.3     1  ZINC000562561773   -0.1200
     25 C25         1.6878    0.0131   47.3479 C.3     1  ZINC000562561773   -0.1300
     26 C26         1.3629    1.4346   47.8431 C.3     1  ZINC000562561773    0.0400
     27 H27         3.3730    4.5321   49.4359 H       1  ZINC000562561773    0.0700
     28 H28         3.7615    4.3715   51.1655 H       1  ZINC000562561773    0.0600
     29 H29         3.8789    2.9566   50.0918 H       1  ZINC000562561773    0.0800
     30 H30         1.6026    5.1969   51.8992 H       1  ZINC000562561773    0.1400
     31 H31        -0.7458    4.6501   52.3816 H       1  ZINC000562561773    0.1400
     32 H32        -5.7130    1.3985   49.9131 H       1  ZINC000562561773    0.1200
     33 H33        -5.1561   -0.0377   50.8047 H       1  ZINC000562561773    0.1300
     34 H34        -6.0717    1.7686   52.7816 H       1  ZINC000562561773    0.1100
     35 H35        -7.2832    1.8368   51.4794 H       1  ZINC000562561773    0.1100
     36 H36        -7.8737    0.7761   55.8501 H       1  ZINC000562561773    0.1000
     37 H37        -7.1112    1.6767   54.5175 H       1  ZINC000562561773    0.1000
     38 H38        -8.4532    2.4062   55.4315 H       1  ZINC000562561773    0.1100
     39 H39        -0.4725    1.2305   49.8165 H       1  ZINC000562561773    0.1300
     40 H40         3.0319    0.2219   50.4239 H       1  ZINC000562561773    0.0900
     41 H41         1.2889   -0.1016   50.1507 H       1  ZINC000562561773    0.0500
     42 H42         3.6282   -0.5073   48.2050 H       1  ZINC000562561773    0.0800
     43 H43         2.3100   -1.6533   48.6154 H       1  ZINC000562561773    0.0700
     44 H44         2.2350    0.0565   46.4061 H       1  ZINC000562561773    0.0800
     45 H45         0.7712   -0.5643   47.2276 H       1  ZINC000562561773    0.0700
     46 H46         0.2867    1.5441   47.9773 H       1  ZINC000562561773    0.0500
     47 H47         1.7271    2.1701   47.1259 H       1  ZINC000562561773    0.0800
@<TRIPOS>BOND
     1     1     2    1
     2     1    27    1
     3     1    28    1
     4     1    29    1
     5     2    21   ar
     6     2     3   ar
     7     3     4   ar
     8     3    30    1
     9     4     5   ar
    10     4    31    1
    11     5     6    1
    12     5    20   ar
    13     6    19    1
    14     6     7    2
    15     7     8    1
    16     8     9    1
    17     9    10    1
    18     9    19    2
    19    10    11    1
    20    10    32    1
    21    10    33    1
    22    11    12    1
    23    11    34    1
    24    11    35    1
    25    12    13    1
    26    13    17    1
    27    13    14    2
    28    14    15    1
    29    15    16    2
    30    16    17    1
    31    17    18    1
    32    18    36    1
    33    18    37    1
    34    18    38    1
    35    20    21   ar
    36    20    39    1
    37    21    22    1
    38    22    26    1
    39    22    23    1
    40    23    24    1
    41    23    40    1
    42    23    41    1
    43    24    25    1
    44    24    42    1
    45    24    43    1
    46    25    26    1
    47    25    44    1
    48    25    45    1
    49    26    46    1
    50    26    47    1
@<TRIPOS>SUBSTRUCTURE
     1 ZINC000562561773        1 TEMP              0 ****  ****    0 ROOT


##########                                Name:    ZINC000375302598
##########                DOCK_Rotatable_Bonds:                   8
##########                         Heavy_Atoms:                  27
##########                    Molecular_Weight:             368.479
##########                DOCK_Rotatable_Bonds:                   8
##########                       Formal_Charge:               -0.02
##########                     HBond_Acceptors:                   6
##########                        HBond_Donors:                   1
##########                         Heavy_Atoms:                  27
##########                          Grid_Score:          -35.030445
##########                     Grid_vdw_energy:          -34.453602
##########                      Grid_es_energy:           -0.576844
##########           Internal_energy_repulsive:            9.677175

@<TRIPOS>MOLECULE
ZINC000375302598
 55 58 1 0 0
SMALL
USER_CHARGES


@<TRIPOS>ATOM
      1 C1         -9.6428    0.3630   62.4660 C.3     1  ZINC000375302598   -0.1500
      2 C2         -9.9901   -0.2447   61.1054 C.3     1  ZINC000375302598   -0.0300
      3 C3         -9.0102    0.2461   60.0711 C.2     1  ZINC000375302598    0.1800
      4 N4         -8.9687    1.4449   59.5414 N.2     1  ZINC000375302598   -0.4700
      5 C5         -7.9391    1.4231   58.6763 C.2     1  ZINC000375302598    0.1800
      6 C6         -7.4760    2.5674   57.8119 C.3     1  ZINC000375302598    0.1500
      7 N7         -8.1143    2.4735   56.4921 N.3     1  ZINC000375302598   -0.5300
      8 C8         -8.9951    3.6234   56.2505 C.3     1  ZINC000375302598    0.0500
      9 C9         -9.7514    3.4208   54.9356 C.3     1  ZINC000375302598   -0.1100
     10 C10        -8.7451    3.2756   53.7908 C.3     1  ZINC000375302598   -0.1300
     11 C11        -7.8091    2.1013   54.0903 C.3     1  ZINC000375302598    0.1500
     12 H12        -8.3877    1.1790   54.1426 H       1  ZINC000375302598    0.1000
     13 N13        -6.8076    1.9906   53.0269 N.am    1  ZINC000375302598   -0.7300
     14 C14        -6.7965    0.9101   52.2213 C.2     1  ZINC000375302598    0.5200
     15 O15        -7.6147    0.0287   52.3778 O.2     1  ZINC000375302598   -0.5300
     16 C16        -5.7673    0.7971   51.1264 C.3     1  ZINC000375302598   -0.1100
     17 C17        -4.6122    1.7592   51.4109 C.3     1  ZINC000375302598   -0.1200
     18 H18        -4.0844    1.5953   52.3504 H       1  ZINC000375302598    0.1200
     19 C19        -4.7595    3.2028   50.9259 C.3     1  ZINC000375302598   -0.1700
     20 C20        -3.7924    2.2516   50.2166 C.3     1  ZINC000375302598   -0.1100
     21 H21        -4.0761    1.8903   49.2281 H       1  ZINC000375302598    0.1100
     22 C22        -2.3170    2.4736   50.4287 C.ar    1  ZINC000375302598   -0.0500
     23 C23        -1.8667    3.0536   51.5999 C.ar    1  ZINC000375302598   -0.1200
     24 C24        -0.5133    3.2573   51.7945 C.ar    1  ZINC000375302598   -0.1200
     25 C25         0.3897    2.8804   50.8181 C.ar    1  ZINC000375302598   -0.1300
     26 C26        -0.0605    2.2996   49.6473 C.ar    1  ZINC000375302598   -0.1200
     27 C27        -1.4136    2.0920   49.4545 C.ar    1  ZINC000375302598   -0.1100
     28 C28        -7.1091    2.3420   55.4296 C.3     1  ZINC000375302598    0.0500
     29 N29        -7.4167    0.2341   58.7231 N.2     1  ZINC000375302598   -0.3800
     30 O30        -8.0139   -0.4556   59.5225 O.3     1  ZINC000375302598    0.0800
     31 H31        -9.6954    1.4499   62.4025 H       1  ZINC000375302598    0.0600
     32 H32       -10.3515    0.0079   63.2140 H       1  ZINC000375302598    0.0800
     33 H33        -8.6339    0.0641   62.7505 H       1  ZINC000375302598    0.0600
     34 H34        -9.9374   -1.3316   61.1688 H       1  ZINC000375302598    0.1100
     35 H35       -10.9990    0.0542   60.8208 H       1  ZINC000375302598    0.1000
     36 H36        -7.7502    3.5119   58.2818 H       1  ZINC000375302598    0.0700
     37 H37        -6.3932    2.5201   57.6960 H       1  ZINC000375302598    0.1100
     38 H38        -9.7085    3.7128   57.0699 H       1  ZINC000375302598    0.0800
     39 H39        -8.3969    4.5324   56.1891 H       1  ZINC000375302598    0.0400
     40 H40       -10.3605    2.5193   55.0014 H       1  ZINC000375302598    0.0700
     41 H41       -10.3935    4.2817   54.7488 H       1  ZINC000375302598    0.0700
     42 H42        -9.2783    3.0879   52.8587 H       1  ZINC000375302598    0.0700
     43 H43        -8.1621    4.1920   53.6998 H       1  ZINC000375302598    0.0600
     44 H44        -6.1524    2.6950   52.9025 H       1  ZINC000375302598    0.4000
     45 H45        -5.3884   -0.2243   51.0880 H       1  ZINC000375302598    0.1000
     46 H46        -6.2246    1.0511   50.1701 H       1  ZINC000375302598    0.1000
     47 H47        -5.6792    3.4671   50.4041 H       1  ZINC000375302598    0.1000
     48 H48        -4.3281    3.9886   51.5461 H       1  ZINC000375302598    0.1000
     49 H49        -2.5723    3.3480   52.3628 H       1  ZINC000375302598    0.1200
     50 H50        -0.1616    3.7111   52.7092 H       1  ZINC000375302598    0.1200
     51 H51         1.4471    3.0402   50.9698 H       1  ZINC000375302598    0.1200
     52 H52         0.6450    2.0055   48.8843 H       1  ZINC000375302598    0.1200
     53 H53        -1.7653    1.6382   48.5398 H       1  ZINC000375302598    0.1200
     54 H54        -6.5197    3.2571   55.3721 H       1  ZINC000375302598    0.0400
     55 H55        -6.4527    1.5010   55.6527 H       1  ZINC000375302598    0.0900
@<TRIPOS>BOND
     1     1     2    1
     2     1    31    1
     3     1    32    1
     4     1    33    1
     5     2     3    1
     6     2    34    1
     7     2    35    1
     8     3    30    1
     9     3     4    2
    10     4     5    1
    11     5     6    1
    12     5    29    2
    13     6     7    1
    14     6    36    1
    15     6    37    1
    16     7    28    1
    17     7     8    1
    18     8     9    1
    19     8    38    1
    20     8    39    1
    21     9    10    1
    22     9    40    1
    23     9    41    1
    24    10    11    1
    25    10    42    1
    26    10    43    1
    27    11    12    1
    28    11    13    1
    29    11    28    1
    30    13    14   am
    31    13    44    1
    32    14    15    2
    33    14    16    1
    34    16    17    1
    35    16    45    1
    36    16    46    1
    37    17    18    1
    38    17    20    1
    39    17    19    1
    40    19    20    1
    41    19    47    1
    42    19    48    1
    43    20    21    1
    44    20    22    1
    45    22    27   ar
    46    22    23   ar
    47    23    24   ar
    48    23    49    1
    49    24    25   ar
    50    24    50    1
    51    25    26   ar
    52    25    51    1
    53    26    27   ar
    54    26    52    1
    55    27    53    1
    56    28    54    1
    57    28    55    1
    58    29    30    1
@<TRIPOS>SUBSTRUCTURE
     1 ZINC000375302598        1 TEMP              0 ****  ****    0 ROOT


##########                                Name:    ZINC001574157642
##########                DOCK_Rotatable_Bonds:                   9
##########                         Heavy_Atoms:                  28
##########                    Molecular_Weight:             387.445
##########                DOCK_Rotatable_Bonds:                   9
##########                       Formal_Charge:          -0.0400004
##########                     HBond_Acceptors:                  11
##########                        HBond_Donors:                   4
##########                         Heavy_Atoms:                  28
##########                          Grid_Score:          -35.013527
##########                     Grid_vdw_energy:          -33.138420
##########                      Grid_es_energy:           -1.875108
##########           Internal_energy_repulsive:           11.860023

@<TRIPOS>MOLECULE
ZINC001574157642
 53 55 1 0 0
SMALL
USER_CHARGES


@<TRIPOS>ATOM
      1 C1         -7.0738    4.0078   50.9543 C.3     1  ZINC001574157642   -0.1400
      2 C2         -6.4861    3.1713   52.0927 C.3     1  ZINC001574157642   -0.0900
      3 C3         -7.5915    2.3243   52.7264 C.3     1  ZINC001574157642   -0.1500
      4 C4         -5.3939    2.2536   51.5399 C.3     1  ZINC001574157642   -0.1300
      5 C5         -4.0474    2.9790   51.5842 C.3     1  ZINC001574157642    0.1300
      6 H6         -4.1725    3.9995   51.2222 H       1  ZINC001574157642    0.1100
      7 C7         -3.0419    2.2426   50.6967 C.3     1  ZINC001574157642    0.1100
      8 N8         -1.6875    2.7102   51.0015 N.pl3   1  ZINC001574157642   -0.7100
      9 C9         -0.6334    2.3836   50.1575 C.ar    1  ZINC001574157642    0.3700
     10 C10        -0.8894    1.8132   48.9118 C.ar    1  ZINC001574157642    0.0000
     11 N11         0.1102    1.5026   48.1106 N.ar    1  ZINC001574157642   -0.3700
     12 C12         1.3637    1.7340   48.4908 C.ar    1  ZINC001574157642    0.0800
     13 C13         2.4893    1.3850   47.5889 C.2     1  ZINC001574157642    0.2300
     14 N14         2.3989    0.8481   46.3881 N.2     1  ZINC001574157642   -0.2700
     15 N15         3.5948    0.7003   45.9314 N.pl3   1  ZINC001574157642   -0.2300
     16 N16         4.4399    1.1262   46.8042 N.2     1  ZINC001574157642   -0.0400
     17 N17         3.7957    1.5597   47.8342 N.2     1  ZINC001574157642   -0.2600
     18 C18         1.6194    2.3045   49.7355 C.ar    1  ZINC001574157642    0.1600
     19 N19         0.6170    2.6199   50.5354 N.ar    1  ZINC001574157642   -0.5000
     20 N20        -3.5530    3.0071   52.9630 N.am    1  ZINC001574157642   -0.7300
     21 C21        -3.1201    4.1649   53.5001 C.2     1  ZINC001574157642    0.5200
     22 O22        -3.1384    5.1832   52.8416 O.2     1  ZINC001574157642   -0.5100
     23 C23        -2.6132    4.1942   54.9190 C.3     1  ZINC001574157642   -0.1300
     24 H24        -2.3161    5.2099   55.1803 H       1  ZINC001574157642    0.1100
     25 C25        -1.4088    3.2549   55.0546 C.3     1  ZINC001574157642   -0.1000
     26 C26        -0.8043    3.4413   56.4485 C.3     1  ZINC001574157642   -0.1400
     27 C27        -1.8866    3.3775   57.4875 C.2     1  ZINC001574157642    0.5200
     28 O28        -1.5647    3.1818   58.6404 O.2     1  ZINC001574157642   -0.5500
     29 N29        -3.1827    3.5252   57.2106 N.am    1  ZINC001574157642   -0.7200
     30 C30        -3.7158    3.7223   55.8677 C.3     1  ZINC001574157642    0.1200
     31 H31        -7.5018    3.3465   50.2009 H       1  ZINC001574157642    0.0400
     32 H32        -7.8519    4.6616   51.3481 H       1  ZINC001574157642    0.0500
     33 H33        -6.2863    4.6113   50.5028 H       1  ZINC001574157642    0.0700
     34 H34        -6.0581    3.8327   52.8460 H       1  ZINC001574157642    0.0700
     35 H35        -8.0195    1.6630   51.9730 H       1  ZINC001574157642    0.0500
     36 H36        -7.1728    1.7284   53.5374 H       1  ZINC001574157642    0.0500
     37 H37        -8.3696    2.9782   53.1202 H       1  ZINC001574157642    0.0500
     38 H38        -5.3390    1.3486   52.1450 H       1  ZINC001574157642    0.0700
     39 H39        -5.6296    1.9879   50.5095 H       1  ZINC001574157642    0.0800
     40 H40        -3.1074    1.1711   50.8853 H       1  ZINC001574157642    0.0800
     41 H41        -3.2680    2.4417   49.6491 H       1  ZINC001574157642    0.0900
     42 H42        -1.5265    3.2480   51.7927 H       1  ZINC001574157642    0.4100
     43 H43        -1.9072    1.6254   48.6030 H       1  ZINC001574157642    0.1700
     44 H44         3.8226    0.3263   45.0658 H       1  ZINC001574157642    0.4800
     45 H45         2.6369    2.4923   50.0449 H       1  ZINC001574157642    0.1800
     46 H46        -3.5372    2.1925   53.4892 H       1  ZINC001574157642    0.4000
     47 H47        -1.7334    2.2217   54.9306 H       1  ZINC001574157642    0.0800
     48 H48        -0.6651    3.4999   54.2963 H       1  ZINC001574157642    0.0900
     49 H49        -0.0757    2.6524   56.6357 H       1  ZINC001574157642    0.1100
     50 H50        -0.3083    4.4105   56.5013 H       1  ZINC001574157642    0.1000
     51 H51        -3.8109    3.5023   57.9492 H       1  ZINC001574157642    0.4000
     52 H52        -4.5113    4.4667   55.9016 H       1  ZINC001574157642    0.0800
     53 H53        -4.1233    2.7805   55.5001 H       1  ZINC001574157642    0.0700
@<TRIPOS>BOND
     1     1     2    1
     2     1    31    1
     3     1    32    1
     4     1    33    1
     5     2     3    1
     6     2     4    1
     7     2    34    1
     8     3    35    1
     9     3    36    1
    10     3    37    1
    11     4     5    1
    12     4    38    1
    13     4    39    1
    14     5     6    1
    15     5     7    1
    16     5    20    1
    17     7     8    1
    18     7    40    1
    19     7    41    1
    20     8     9    1
    21     8    42    1
    22     9    19   ar
    23     9    10   ar
    24    10    11   ar
    25    10    43    1
    26    11    12   ar
    27    12    13    1
    28    12    18   ar
    29    13    17    1
    30    13    14    2
    31    14    15    1
    32    15    16    1
    33    15    44    1
    34    16    17    2
    35    18    19   ar
    36    18    45    1
    37    20    21   am
    38    20    46    1
    39    21    22    2
    40    21    23    1
    41    23    24    1
    42    23    30    1
    43    23    25    1
    44    25    26    1
    45    25    47    1
    46    25    48    1
    47    26    27    1
    48    26    49    1
    49    26    50    1
    50    27    28    2
    51    27    29   am
    52    29    30    1
    53    29    51    1
    54    30    52    1
    55    30    53    1
@<TRIPOS>SUBSTRUCTURE
     1 ZINC001574157642        1 TEMP              0 ****  ****    0 ROOT


##########                                Name:    ZINC000499369364
##########                DOCK_Rotatable_Bonds:                   9
##########                         Heavy_Atoms:                  25
##########                    Molecular_Weight:             384.527
##########                DOCK_Rotatable_Bonds:                   9
##########                       Formal_Charge:        -5.88596e-07
##########                     HBond_Acceptors:                  10
##########                        HBond_Donors:                   1
##########                         Heavy_Atoms:                  25
##########                          Grid_Score:          -34.844055
##########                     Grid_vdw_energy:          -33.749977
##########                      Grid_es_energy:           -1.094079
##########           Internal_energy_repulsive:           17.606926

@<TRIPOS>MOLECULE
ZINC000499369364
 49 51 1 0 0
SMALL
USER_CHARGES


@<TRIPOS>ATOM
      1 C1        -10.5016   -2.0852   55.5051 C.3     1  ZINC000499369364   -0.1500
      2 C2        -11.1669   -2.5054   56.8173 C.3     1  ZINC000499369364   -0.1000
      3 C3        -10.1333   -3.1831   57.7190 C.3     1  ZINC000499369364   -0.1500
      4 C4        -11.7274   -1.2692   57.5234 C.3     1  ZINC000499369364    0.1500
      5 H5        -12.3221   -0.6870   56.8195 H       1  ZINC000499369364    0.0900
      6 C6        -12.6083   -1.7068   58.6954 C.3     1  ZINC000499369364   -0.1700
      7 N7        -10.6213   -0.4491   58.0236 N.am    1  ZINC000499369364   -0.7200
      8 C8        -10.8457    0.8234   58.4072 C.2     1  ZINC000499369364    0.5100
      9 O9        -11.9636    1.2889   58.3398 O.2     1  ZINC000499369364   -0.5100
     10 C10        -9.7076    1.6676   58.9199 C.3     1  ZINC000499369364    0.1200
     11 H11       -10.0610    2.6910   59.0464 H       1  ZINC000499369364    0.1200
     12 C12        -9.2645    1.1213   60.2962 C.3     1  ZINC000499369364   -0.0800
     13 S13        -7.8176    0.0832   59.8245 S.3     1  ZINC000499369364   -0.2400
     14 C14        -7.3368    1.1695   58.4185 C.3     1  ZINC000499369364    0.1400
     15 N15        -8.6383    1.6605   57.9333 N.am    1  ZINC000499369364   -0.6000
     16 C16        -8.8267    2.0769   56.6654 C.2     1  ZINC000499369364    0.5600
     17 O17        -9.9173    2.4738   56.3131 O.2     1  ZINC000499369364   -0.5000
     18 C18        -7.6822    2.0495   55.6854 C.3     1  ZINC000499369364   -0.1500
     19 S19        -8.2845    2.5088   54.0415 S.3     1  ZINC000499369364    0.1300
     20 C20        -7.8222    1.0713   53.1335 C.2     1  ZINC000499369364    0.2000
     21 N21        -8.5212   -0.0369   53.0154 N.2     1  ZINC000499369364   -0.3400
     22 N22        -7.8957   -0.8873   52.2842 N.2     1  ZINC000499369364   -0.0300
     23 N23        -6.7717   -0.3963   51.8876 N.2     1  ZINC000499369364   -0.0800
     24 N24        -6.6833    0.9014   52.4212 N.pl3   1  ZINC000499369364   -0.3300
     25 C25        -5.5894    1.8607   52.2507 C.3     1  ZINC000499369364    0.0500
     26 C26        -4.4870    1.5047   51.2512 C.3     1  ZINC000499369364   -0.1500
     27 C27        -5.5004    2.6005   50.9144 C.3     1  ZINC000499369364   -0.1600
     28 H28       -10.1022   -2.9659   55.0020 H       1  ZINC000499369364    0.0600
     29 H29       -11.2380   -1.6025   54.8627 H       1  ZINC000499369364    0.0600
     30 H30        -9.6906   -1.3881   55.7158 H       1  ZINC000499369364    0.0600
     31 H31       -11.9779   -3.2025   56.6065 H       1  ZINC000499369364    0.0800
     32 H32        -9.7339   -4.0637   57.2159 H       1  ZINC000499369364    0.0600
     33 H33        -9.3223   -2.4859   57.9298 H       1  ZINC000499369364    0.0600
     34 H34       -10.6072   -3.4823   58.6539 H       1  ZINC000499369364    0.0500
     35 H35       -12.0136   -2.2891   59.3993 H       1  ZINC000499369364    0.0600
     36 H36       -13.0075   -0.8262   59.1985 H       1  ZINC000499369364    0.0600
     37 H37       -13.4313   -2.3171   58.3233 H       1  ZINC000499369364    0.0700
     38 H38        -9.7274   -0.8218   58.0787 H       1  ZINC000499369364    0.4000
     39 H39        -8.9649    1.9314   60.9612 H       1  ZINC000499369364    0.1200
     40 H40       -10.0499    0.5158   60.7485 H       1  ZINC000499369364    0.1300
     41 H41        -6.7145    1.9953   58.7631 H       1  ZINC000499369364    0.1100
     42 H42        -6.8267    0.5966   57.6440 H       1  ZINC000499369364    0.1200
     43 H43        -6.9156    2.7566   56.0021 H       1  ZINC000499369364    0.1300
     44 H44        -7.2585    1.0458   55.6497 H       1  ZINC000499369364    0.1300
     45 H45        -5.2983    2.4062   53.1484 H       1  ZINC000499369364    0.1600
     46 H46        -3.4703    1.8160   51.4912 H       1  ZINC000499369364    0.1200
     47 H47        -4.5758    0.5568   50.7205 H       1  ZINC000499369364    0.1200
     48 H48        -6.2558    2.3733   50.1621 H       1  ZINC000499369364    0.1100
     49 H49        -5.1504    3.6326   50.9329 H       1  ZINC000499369364    0.1200
@<TRIPOS>BOND
     1     1     2    1
     2     1    28    1
     3     1    29    1
     4     1    30    1
     5     2     3    1
     6     2     4    1
     7     2    31    1
     8     3    32    1
     9     3    33    1
    10     3    34    1
    11     4     5    1
    12     4     6    1
    13     4     7    1
    14     6    35    1
    15     6    36    1
    16     6    37    1
    17     7     8   am
    18     7    38    1
    19     8     9    2
    20     8    10    1
    21    10    11    1
    22    10    15    1
    23    10    12    1
    24    12    13    1
    25    12    39    1
    26    12    40    1
    27    13    14    1
    28    14    15    1
    29    14    41    1
    30    14    42    1
    31    15    16   am
    32    16    17    2
    33    16    18    1
    34    18    19    1
    35    18    43    1
    36    18    44    1
    37    19    20    1
    38    20    24    1
    39    20    21    2
    40    21    22    1
    41    22    23    2
    42    23    24    1
    43    24    25    1
    44    25    27    1
    45    25    26    1
    46    25    45    1
    47    26    27    1
    48    26    46    1
    49    26    47    1
    50    27    48    1
    51    27    49    1
@<TRIPOS>SUBSTRUCTURE
     1 ZINC000499369364        1 TEMP              0 ****  ****    0 ROOT


##########                                Name:    ZINC000740843182
##########                DOCK_Rotatable_Bonds:                  10
##########                         Heavy_Atoms:                  24
##########                    Molecular_Weight:              419.34
##########                DOCK_Rotatable_Bonds:                  10
##########                       Formal_Charge:          0.00999957
##########                     HBond_Acceptors:                   7
##########                        HBond_Donors:                   3
##########                         Heavy_Atoms:                  24
##########                          Grid_Score:          -34.819061
##########                     Grid_vdw_energy:          -31.122219
##########                      Grid_es_energy:           -3.696843
##########           Internal_energy_repulsive:           13.770128

@<TRIPOS>MOLECULE
ZINC000740843182
 47 48 1 0 0
SMALL
USER_CHARGES


@<TRIPOS>ATOM
      1 C1         -1.8593    2.5351   57.5290 C.3     1  ZINC000740843182   -0.1500
      2 C2         -0.4747    3.0930   57.1932 C.3     1  ZINC000740843182   -0.1000
      3 H3          0.1828    2.2770   56.8931 H       1  ZINC000740843182    0.0900
      4 C4         -0.5948    4.0991   56.0468 C.3     1  ZINC000740843182    0.1200
      5 N5         -1.0328    3.4062   54.8327 N.am    1  ZINC000740843182   -0.7200
      6 C6         -1.7318    4.0717   53.8919 C.2     1  ZINC000740843182    0.5500
      7 O7         -2.0001    5.2465   54.0516 O.2     1  ZINC000740843182   -0.5000
      8 C8         -2.1721    3.3731   52.6663 C.ar    1  ZINC000740843182   -0.1300
      9 C9         -3.4918    2.9353   52.5446 C.ar    1  ZINC000740843182    0.0200
     10 C10        -3.8965    2.2843   51.3977 C.ar    1  ZINC000740843182   -0.6800
     11 S11        -5.5622    1.7311   51.2425 S.o2    1  ZINC000740843182    2.7000
     12 O12        -5.5094    0.4842   50.5632 O.2     1  ZINC000740843182   -0.9400
     13 O13        -6.1601    1.8947   52.5212 O.2     1  ZINC000740843182   -0.9500
     14 N14        -6.3361    2.7849   50.2261 N.am    1  ZINC000740843182   -1.0900
     15 C15        -6.4286    4.2046   50.5750 C.3     1  ZINC000740843182    0.0800
     16 C16        -7.5016    5.0370   49.8702 C.3     1  ZINC000740843182   -0.1800
     17 C17        -7.6688    4.6637   51.3445 C.3     1  ZINC000740843182   -0.1900
     18 C18        -2.9979    2.0648   50.3686 C.ar    1  ZINC000740843182    0.0100
     19 C19        -1.6884    2.4956   50.4816 C.ar    1  ZINC000740843182   -0.1200
     20 C20        -1.2708    3.1529   51.6218 C.ar    1  ZINC000740843182    0.0100
     21 Br21        0.5198    3.7412   51.7750 Br      1  ZINC000740843182    0.0100
     22 C22         0.1067    3.7901   58.4248 C.3     1  ZINC000740843182   -0.1400
     23 C23         0.2280    2.7836   59.5707 C.3     1  ZINC000740843182    0.1000
     24 H24        -0.7578    2.3851   59.8102 H       1  ZINC000740843182    0.1000
     25 C25         0.8095    3.4805   60.8024 C.3     1  ZINC000740843182   -0.1900
     26 O26         1.0908    1.7147   59.1766 O.3     1  ZINC000740843182   -0.5600
     27 H27        -1.7738    1.8182   58.3457 H       1  ZINC000740843182    0.0600
     28 H28        -2.5168    3.3510   57.8290 H       1  ZINC000740843182    0.0600
     29 H29        -2.2735    2.0385   56.6516 H       1  ZINC000740843182    0.0500
     30 H30        -1.3235    4.8655   56.3108 H       1  ZINC000740843182    0.0700
     31 H31         0.3745    4.5652   55.8695 H       1  ZINC000740843182    0.0700
     32 H32        -0.8198    2.4685   54.7059 H       1  ZINC000740843182    0.4000
     33 H33        -4.1946    3.1057   53.3467 H       1  ZINC000740843182    0.1500
     34 H34        -6.7282    2.4619   49.3998 H       1  ZINC000740843182    0.4200
     35 H35        -5.4827    4.6944   50.8067 H       1  ZINC000740843182    0.1400
     36 H36        -7.2617    6.0745   49.6378 H       1  ZINC000740843182    0.1100
     37 H37        -8.1387    4.5281   49.1469 H       1  ZINC000740843182    0.1000
     38 H38        -8.4159    3.9093   51.5911 H       1  ZINC000740843182    0.1000
     39 H39        -7.5389    5.4557   52.0821 H       1  ZINC000740843182    0.1100
     40 H40        -3.3206    1.5546   49.4731 H       1  ZINC000740843182    0.1600
     41 H41        -0.9921    2.3212   49.6747 H       1  ZINC000740843182    0.1500
     42 H42         1.0926    4.1884   58.1852 H       1  ZINC000740843182    0.0700
     43 H43        -0.5513    4.6053   58.7254 H       1  ZINC000740843182    0.0800
     44 H44         0.1513    4.2957   61.1030 H       1  ZINC000740843182    0.0700
     45 H45         0.8959    2.7635   61.6187 H       1  ZINC000740843182    0.0600
     46 H46         1.7953    3.8790   60.5629 H       1  ZINC000740843182    0.0600
     47 H47         0.7836    1.2273   58.3999 H       1  ZINC000740843182    0.3700
@<TRIPOS>BOND
     1     1     2    1
     2     1    27    1
     3     1    28    1
     4     1    29    1
     5     2     3    1
     6     2     4    1
     7     2    22    1
     8     4     5    1
     9     4    30    1
    10     4    31    1
    11     5     6   am
    12     5    32    1
    13     6     7    2
    14     6     8    1
    15     8    20   ar
    16     8     9   ar
    17     9    10   ar
    18     9    33    1
    19    10    11    1
    20    10    18   ar
    21    11    12    2
    22    11    13    2
    23    11    14   am
    24    14    15    1
    25    14    34    1
    26    15    17    1
    27    15    16    1
    28    15    35    1
    29    16    17    1
    30    16    36    1
    31    16    37    1
    32    17    38    1
    33    17    39    1
    34    18    19   ar
    35    18    40    1
    36    19    20   ar
    37    19    41    1
    38    20    21    1
    39    22    23    1
    40    22    42    1
    41    22    43    1
    42    23    24    1
    43    23    25    1
    44    23    26    1
    45    25    44    1
    46    25    45    1
    47    25    46    1
    48    26    47    1
@<TRIPOS>SUBSTRUCTURE
     1 ZINC000740843182        1 TEMP              0 ****  ****    0 ROOT


##########                                Name:    ZINC000062291520
##########                DOCK_Rotatable_Bonds:                  10
##########                         Heavy_Atoms:                  29
##########                    Molecular_Weight:             398.502
##########                DOCK_Rotatable_Bonds:                  10
##########                       Formal_Charge:          -0.0100006
##########                     HBond_Acceptors:                   6
##########                        HBond_Donors:                   1
##########                         Heavy_Atoms:                  29
##########                          Grid_Score:          -34.801975
##########                     Grid_vdw_energy:          -34.754528
##########                      Grid_es_energy:           -0.047447
##########           Internal_energy_repulsive:           15.085052

@<TRIPOS>MOLECULE
ZINC000062291520
 59 61 1 0 0
SMALL
USER_CHARGES


@<TRIPOS>ATOM
      1 C1        -16.1201   -2.4361   60.4272 C.3     1  ZINC000062291520    0.0300
      2 O2        -14.9864   -2.6608   59.5867 O.3     1  ZINC000062291520   -0.3100
      3 C3        -15.1752   -2.5267   58.2467 C.ar    1  ZINC000062291520    0.1000
      4 C4        -16.4486   -2.3192   57.7423 C.ar    1  ZINC000062291520   -0.1700
      5 C5        -16.6395   -2.1887   56.3789 C.ar    1  ZINC000062291520   -0.1200
      6 C6        -15.5612   -2.2590   55.5172 C.ar    1  ZINC000062291520   -0.1200
      7 C7        -14.2866   -2.4597   56.0146 C.ar    1  ZINC000062291520   -0.1700
      8 C8        -14.0885   -2.5913   57.3793 C.ar    1  ZINC000062291520    0.1000
      9 O9        -12.8356   -2.7887   57.8701 O.3     1  ZINC000062291520   -0.3100
     10 C10       -11.7867   -2.9712   56.9169 C.3     1  ZINC000062291520    0.0700
     11 C11       -10.4464   -3.0761   57.6472 C.3     1  ZINC000062291520   -0.1400
     12 C12       -10.1838   -1.7979   58.4011 C.2     1  ZINC000062291520    0.5200
     13 O13       -10.3744   -1.7497   59.5979 O.2     1  ZINC000062291520   -0.5400
     14 N14        -9.7371   -0.7085   57.7454 N.am    1  ZINC000062291520   -0.7200
     15 C15        -9.4801    0.5336   58.4786 C.3     1  ZINC000062291520    0.1600
     16 C16        -8.5633    1.4142   57.6692 C.ar    1  ZINC000062291520   -0.1100
     17 C17        -7.5225    2.0813   58.2872 C.ar    1  ZINC000062291520   -0.1000
     18 C18        -6.6812    2.8888   57.5445 C.ar    1  ZINC000062291520   -0.1200
     19 C19        -6.8810    3.0291   56.1841 C.ar    1  ZINC000062291520   -0.0900
     20 C20        -7.9225    2.3622   55.5660 C.ar    1  ZINC000062291520   -0.0800
     21 C21        -8.1405    2.5154   54.0828 C.3     1  ZINC000062291520    0.0900
     22 N22        -7.2507    1.5974   53.3595 N.3     1  ZINC000062291520   -0.5300
     23 C23        -7.9869    0.4186   52.8799 C.3     1  ZINC000062291520    0.0100
     24 C24        -7.0128   -0.5372   52.1860 C.3     1  ZINC000062291520    0.0600
     25 O25        -6.3483    0.1546   51.1254 O.3     1  ZINC000062291520   -0.3800
     26 C26        -5.6207    1.3078   51.5569 C.3     1  ZINC000062291520    0.0900
     27 H27        -4.8431    1.0060   52.2585 H       1  ZINC000062291520    0.0700
     28 C28        -4.9800    1.9900   50.3467 C.3     1  ZINC000062291520   -0.1500
     29 C29        -6.5807    2.2823   52.2445 C.3     1  ZINC000062291520    0.0200
     30 C30        -8.7600    1.5503   56.3075 C.ar    1  ZINC000062291520   -0.0900
     31 H31       -16.4832   -1.4185   60.2830 H       1  ZINC000062291520    0.0500
     32 H32       -16.9088   -3.1433   60.1703 H       1  ZINC000062291520    0.0600
     33 H33       -15.8329   -2.5751   61.4695 H       1  ZINC000062291520    0.1000
     34 H34       -17.2929   -2.2639   58.4135 H       1  ZINC000062291520    0.1400
     35 H35       -17.6333   -2.0311   55.9866 H       1  ZINC000062291520    0.1300
     36 H36       -15.7143   -2.1566   54.4531 H       1  ZINC000062291520    0.1300
     37 H37       -13.4456   -2.5136   55.3392 H       1  ZINC000062291520    0.1400
     38 H38       -11.7635   -2.1211   56.2351 H       1  ZINC000062291520    0.0700
     39 H39       -11.9648   -3.8858   56.3513 H       1  ZINC000062291520    0.0700
     40 H40        -9.6494   -3.2405   56.9220 H       1  ZINC000062291520    0.1100
     41 H41       -10.4784   -3.9108   58.3474 H       1  ZINC000062291520    0.1100
     42 H42        -9.5857   -0.7466   56.7881 H       1  ZINC000062291520    0.4000
     43 H43       -10.4220    1.0535   58.6540 H       1  ZINC000062291520    0.0800
     44 H44        -9.0102    0.3009   59.4342 H       1  ZINC000062291520    0.0800
     45 H45        -7.3661    1.9713   59.3501 H       1  ZINC000062291520    0.1200
     46 H46        -5.8676    3.4098   58.0274 H       1  ZINC000062291520    0.1300
     47 H47        -6.2237    3.6599   55.6040 H       1  ZINC000062291520    0.1200
     48 H48        -9.1776    2.2814   53.8420 H       1  ZINC000062291520    0.0500
     49 H49        -7.9218    3.5416   53.7875 H       1  ZINC000062291520    0.0900
     50 H50        -8.4537   -0.0876   53.7250 H       1  ZINC000062291520    0.0900
     51 H51        -8.7555    0.7321   52.1736 H       1  ZINC000062291520    0.0400
     52 H52        -6.2761   -0.8925   52.9066 H       1  ZINC000062291520    0.0600
     53 H53        -7.5631   -1.3854   51.7788 H       1  ZINC000062291520    0.1000
     54 H54        -5.7582    2.2930   49.6461 H       1  ZINC000062291520    0.0600
     55 H55        -4.4257    2.8688   50.6762 H       1  ZINC000062291520    0.0700
     56 H56        -4.2996    1.2945   49.8554 H       1  ZINC000062291520    0.0700
     57 H57        -7.3264    2.6255   51.5273 H       1  ZINC000062291520    0.0400
     58 H58        -6.0211    3.1364   52.6256 H       1  ZINC000062291520    0.0900
     59 H59        -9.5706    1.0256   55.8238 H       1  ZINC000062291520    0.1200
@<TRIPOS>BOND
     1     1     2    1
     2     1    31    1
     3     1    32    1
     4     1    33    1
     5     2     3    1
     6     3     8   ar
     7     3     4   ar
     8     4     5   ar
     9     4    34    1
    10     5     6   ar
    11     5    35    1
    12     6     7   ar
    13     6    36    1
    14     7     8   ar
    15     7    37    1
    16     8     9    1
    17     9    10    1
    18    10    11    1
    19    10    38    1
    20    10    39    1
    21    11    12    1
    22    11    40    1
    23    11    41    1
    24    12    13    2
    25    12    14   am
    26    14    15    1
    27    14    42    1
    28    15    16    1
    29    15    43    1
    30    15    44    1
    31    16    30   ar
    32    16    17   ar
    33    17    18   ar
    34    17    45    1
    35    18    19   ar
    36    18    46    1
    37    19    20   ar
    38    19    47    1
    39    20    21    1
    40    20    30   ar
    41    21    22    1
    42    21    48    1
    43    21    49    1
    44    22    29    1
    45    22    23    1
    46    23    24    1
    47    23    50    1
    48    23    51    1
    49    24    25    1
    50    24    52    1
    51    24    53    1
    52    25    26    1
    53    26    27    1
    54    26    28    1
    55    26    29    1
    56    28    54    1
    57    28    55    1
    58    28    56    1
    59    29    57    1
    60    29    58    1
    61    30    59    1
@<TRIPOS>SUBSTRUCTURE
     1 ZINC000062291520        1 TEMP              0 ****  ****    0 ROOT


##########                                Name:    ZINC000790205345
##########                DOCK_Rotatable_Bonds:                   7
##########                         Heavy_Atoms:                  28
##########                    Molecular_Weight:             382.459
##########                DOCK_Rotatable_Bonds:                   7
##########                       Formal_Charge:          -0.0299997
##########                     HBond_Acceptors:                   6
##########                        HBond_Donors:                   0
##########                         Heavy_Atoms:                  28
##########                          Grid_Score:          -34.734230
##########                     Grid_vdw_energy:          -35.721478
##########                      Grid_es_energy:            0.987249
##########           Internal_energy_repulsive:           51.799274

@<TRIPOS>MOLECULE
ZINC000790205345
 54 56 1 0 0
SMALL
USER_CHARGES


@<TRIPOS>ATOM
      1 C1          2.3212   -0.3718   47.7403 C.3     1  ZINC000790205345   -0.1100
      2 C2          1.5772    0.5227   48.6982 C.ar    1  ZINC000790205345   -0.1300
      3 C3          0.3136    0.9804   48.3748 C.ar    1  ZINC000790205345   -0.0800
      4 C4         -0.3708    1.8002   49.2514 C.ar    1  ZINC000790205345   -0.2100
      5 C5          0.2111    2.1639   50.4569 C.ar    1  ZINC000790205345    0.1300
      6 O6         -0.4602    2.9697   51.3212 O.3     1  ZINC000790205345   -0.2900
      7 C7         -1.8877    2.9187   51.2799 C.3     1  ZINC000790205345    0.0400
      8 C8         -2.4411    3.2281   52.6471 C.2     1  ZINC000790205345    0.5200
      9 O9         -1.7069    3.2293   53.6125 O.2     1  ZINC000790205345   -0.5100
     10 N10        -3.7519    3.5032   52.7972 N.am    1  ZINC000790205345   -0.6100
     11 C11        -4.2893    3.8057   54.1261 C.3     1  ZINC000790205345    0.0700
     12 C12        -4.6391    3.5000   51.6316 C.3     1  ZINC000790205345    0.1800
     13 H13        -4.0463    3.6092   50.7233 H       1  ZINC000790205345    0.1200
     14 C14        -5.6266    4.6637   51.7390 C.3     1  ZINC000790205345   -0.1600
     15 C15        -5.3989    2.1995   51.5821 C.ar    1  ZINC000790205345   -0.0700
     16 C16        -4.9758    1.1840   50.7446 C.ar    1  ZINC000790205345   -0.1300
     17 C17        -5.6707   -0.0108   50.6959 C.ar    1  ZINC000790205345   -0.0900
     18 C18        -6.7894   -0.1932   51.4846 C.ar    1  ZINC000790205345   -0.1500
     19 C19        -7.2167    0.8247   52.3273 C.ar    1  ZINC000790205345    0.1800
     20 N20        -8.3500    0.6428   53.1281 N.am    1  ZINC000790205345   -0.5700
     21 C21        -9.2001   -0.5574   53.1474 C.3     1  ZINC000790205345    0.0600
     22 C22       -10.2831   -0.2232   54.1913 C.3     1  ZINC000790205345    0.0400
     23 O23        -9.9334    1.1161   54.6460 O.3     1  ZINC000790205345   -0.3200
     24 C24        -8.8342    1.5314   54.0066 C.2     1  ZINC000790205345    0.6400
     25 O25        -8.3259    2.6183   54.1989 O.2     1  ZINC000790205345   -0.5000
     26 C26        -6.5139    2.0212   52.3776 C.ar    1  ZINC000790205345   -0.1400
     27 C27         1.4796    1.7030   50.7793 C.ar    1  ZINC000790205345   -0.1500
     28 C28         2.1574    0.8794   49.9018 C.ar    1  ZINC000790205345   -0.0500
     29 C29         3.5350    0.3781   50.2513 C.3     1  ZINC000790205345   -0.1200
     30 H30         2.0824   -1.4133   47.9558 H       1  ZINC000790205345    0.0700
     31 H31         2.0257   -0.1352   46.7182 H       1  ZINC000790205345    0.0600
     32 H32         3.3937   -0.2138   47.8542 H       1  ZINC000790205345    0.0700
     33 H33        -0.1390    0.6973   47.4359 H       1  ZINC000790205345    0.1300
     34 H34        -1.3579    2.1580   48.9982 H       1  ZINC000790205345    0.1300
     35 H35        -2.2570    3.6529   50.5639 H       1  ZINC000790205345    0.1000
     36 H36        -2.2070    1.9219   50.9757 H       1  ZINC000790205345    0.0900
     37 H37        -4.1383    4.8623   54.3472 H       1  ZINC000790205345    0.0600
     38 H38        -5.3553    3.5789   54.1470 H       1  ZINC000790205345    0.0800
     39 H39        -3.7745    3.2010   54.8725 H       1  ZINC000790205345    0.0700
     40 H40        -6.2195    4.5545   52.6471 H       1  ZINC000790205345    0.0600
     41 H41        -5.0772    5.6044   51.7747 H       1  ZINC000790205345    0.0700
     42 H42        -6.2868    4.6613   50.8716 H       1  ZINC000790205345    0.0800
     43 H43        -4.1011    1.3242   50.1268 H       1  ZINC000790205345    0.1300
     44 H44        -5.3381   -0.8019   50.0402 H       1  ZINC000790205345    0.1300
     45 H45        -7.3318   -1.1264   51.4458 H       1  ZINC000790205345    0.1300
     46 H46        -9.6501   -0.7236   52.1687 H       1  ZINC000790205345    0.1000
     47 H47        -8.6246   -1.4292   53.4584 H       1  ZINC000790205345    0.1000
     48 H48       -11.2711   -0.2245   53.7308 H       1  ZINC000790205345    0.1100
     49 H49       -10.2458   -0.9300   55.0202 H       1  ZINC000790205345    0.1100
     50 H50        -6.8435    2.8146   53.0321 H       1  ZINC000790205345    0.1600
     51 H51         1.9350    1.9849   51.7171 H       1  ZINC000790205345    0.1300
     52 H52         3.4523   -0.5667   50.7885 H       1  ZINC000790205345    0.0700
     53 H53         4.1095    0.2273   49.3373 H       1  ZINC000790205345    0.0700
     54 H54         4.0394    1.1111   50.8809 H       1  ZINC000790205345    0.0700
@<TRIPOS>BOND
     1     1     2    1
     2     1    30    1
     3     1    31    1
     4     1    32    1
     5     2    28   ar
     6     2     3   ar
     7     3     4   ar
     8     3    33    1
     9     4     5   ar
    10     4    34    1
    11     5     6    1
    12     5    27   ar
    13     6     7    1
    14     7     8    1
    15     7    35    1
    16     7    36    1
    17     8     9    2
    18     8    10   am
    19    10    11    1
    20    10    12    1
    21    11    37    1
    22    11    38    1
    23    11    39    1
    24    12    13    1
    25    12    14    1
    26    12    15    1
    27    14    40    1
    28    14    41    1
    29    14    42    1
    30    15    26   ar
    31    15    16   ar
    32    16    17   ar
    33    16    43    1
    34    17    18   ar
    35    17    44    1
    36    18    19   ar
    37    18    45    1
    38    19    20    1
    39    19    26   ar
    40    20    24   am
    41    20    21    1
    42    21    22    1
    43    21    46    1
    44    21    47    1
    45    22    23    1
    46    22    48    1
    47    22    49    1
    48    23    24    1
    49    24    25    2
    50    26    50    1
    51    27    28   ar
    52    27    51    1
    53    28    29    1
    54    29    52    1
    55    29    53    1
    56    29    54    1
@<TRIPOS>SUBSTRUCTURE
     1 ZINC000790205345        1 TEMP              0 ****  ****    0 ROOT


##########                                Name:    ZINC001109848453
##########                DOCK_Rotatable_Bonds:                   8
##########                         Heavy_Atoms:                  24
##########                    Molecular_Weight:             328.337
##########                DOCK_Rotatable_Bonds:                   8
##########                       Formal_Charge:          0.00999966
##########                     HBond_Acceptors:                  11
##########                        HBond_Donors:                   2
##########                         Heavy_Atoms:                  24
##########                          Grid_Score:          -34.722668
##########                     Grid_vdw_energy:          -32.854771
##########                      Grid_es_energy:           -1.867896
##########           Internal_energy_repulsive:            7.681850

@<TRIPOS>MOLECULE
ZINC001109848453
 40 43 1 0 0
SMALL
USER_CHARGES


@<TRIPOS>ATOM
      1 O1         -6.4971    5.2644   51.2462 O.2     1  ZINC001109848453   -0.5000
      2 C2         -6.8299    4.5385   50.3334 C.2     1  ZINC001109848453    0.5000
      3 C3         -7.5714    5.1067   49.1509 C.3     1  ZINC001109848453    0.1100
      4 N4         -9.0141    4.9990   49.3814 N.pl3   1  ZINC001109848453   -0.3700
      5 C5         -9.9690    5.8185   48.9086 C.2     1  ZINC001109848453    0.2600
      6 N6        -11.1261    5.3837   49.3373 N.2     1  ZINC001109848453   -0.5400
      7 C7        -10.9511    4.2935   50.0832 C.2     1  ZINC001109848453    0.2000
      8 N8         -9.6749    4.0155   50.1355 N.2     1  ZINC001109848453   -0.2900
      9 N9         -6.5317    3.2248   50.3739 N.am    1  ZINC001109848453   -0.7300
     10 C10        -5.8108    2.6724   51.5234 C.3     1  ZINC001109848453    0.1700
     11 H11        -5.3002    3.4768   52.0529 H       1  ZINC001109848453    0.1000
     12 C12        -4.7828    1.6489   51.0370 C.3     1  ZINC001109848453    0.1200
     13 N13        -3.7816    2.3204   50.2045 N.pl3   1  ZINC001109848453   -0.6800
     14 C14        -2.5626    2.6890   50.7492 C.2     1  ZINC001109848453    0.4900
     15 N15        -2.5172    3.3897   51.8657 N.2     1  ZINC001109848453   -0.5300
     16 C16        -1.3503    3.7527   52.4042 C.2     1  ZINC001109848453    0.1400
     17 C17        -0.1761    3.4191   51.8300 C.2     1  ZINC001109848453   -0.0500
     18 N18        -0.1642    2.6932   50.6714 N.pl3   1  ZINC001109848453   -0.1800
     19 N19         0.7652    2.2367   49.9092 N.2     1  ZINC001109848453   -0.1000
     20 N20         0.2328    1.6056   48.9207 N.2     1  ZINC001109848453   -0.0400
     21 N21        -1.0535    1.6377   49.0180 N.2     1  ZINC001109848453   -0.2600
     22 C22        -1.3547    2.3123   50.1162 C.2     1  ZINC001109848453    0.1000
     23 C23        -6.8027    1.9897   52.4675 C.3     1  ZINC001109848453   -0.1800
     24 C24        -6.7926    2.4215   53.9353 C.3     1  ZINC001109848453   -0.1700
     25 C25        -7.9480    2.8387   53.0230 C.3     1  ZINC001109848453   -0.1700
     26 H26        -7.3013    6.1549   49.0221 H       1  ZINC001109848453    0.1300
     27 H27        -7.3045    4.5497   48.2528 H       1  ZINC001109848453    0.1200
     28 H28        -9.8090    6.6852   48.2843 H       1  ZINC001109848453    0.2200
     29 H29       -11.7366    3.7289   50.5632 H       1  ZINC001109848453    0.2200
     30 H30        -6.7945    2.6450   49.6420 H       1  ZINC001109848453    0.4000
     31 H31        -4.2928    1.1899   51.8956 H       1  ZINC001109848453    0.1000
     32 H32        -5.2855    0.8794   50.4512 H       1  ZINC001109848453    0.0900
     33 H33        -3.9724    2.5069   49.2719 H       1  ZINC001109848453    0.4200
     34 H34        -1.3465    4.3263   53.3193 H       1  ZINC001109848453    0.2000
     35 H35         0.7543    3.7254   52.2850 H       1  ZINC001109848453    0.1900
     36 H36        -7.0116    0.9419   52.2521 H       1  ZINC001109848453    0.1100
     37 H37        -6.9948    1.6575   54.6860 H       1  ZINC001109848453    0.1000
     38 H38        -6.0794    3.1918   54.2284 H       1  ZINC001109848453    0.1000
     39 H39        -7.9947    3.8836   52.7160 H       1  ZINC001109848453    0.1200
     40 H40        -8.9101    2.3493   53.1736 H       1  ZINC001109848453    0.0900
@<TRIPOS>BOND
     1     1     2    2
     2     2     3    1
     3     2     9   am
     4     3     4    1
     5     3    26    1
     6     3    27    1
     7     4     8    1
     8     4     5    1
     9     5     6    2
    10     5    28    1
    11     6     7    1
    12     7     8    2
    13     7    29    1
    14     9    10    1
    15     9    30    1
    16    10    11    1
    17    10    12    1
    18    10    23    1
    19    12    13    1
    20    12    31    1
    21    12    32    1
    22    13    14    1
    23    13    33    1
    24    14    22    1
    25    14    15    2
    26    15    16    1
    27    16    17    2
    28    16    34    1
    29    17    18    1
    30    17    35    1
    31    18    22    1
    32    18    19    1
    33    19    20    2
    34    20    21    1
    35    21    22    2
    36    23    25    1
    37    23    24    1
    38    23    36    1
    39    24    25    1
    40    24    37    1
    41    24    38    1
    42    25    39    1
    43    25    40    1
@<TRIPOS>SUBSTRUCTURE
     1 ZINC001109848453        1 TEMP              0 ****  ****    0 ROOT


##########                                Name:    ZINC000929592477
##########                DOCK_Rotatable_Bonds:                   7
##########                         Heavy_Atoms:                  28
##########                    Molecular_Weight:             399.517
##########                DOCK_Rotatable_Bonds:                   7
##########                       Formal_Charge:         -8.9407e-08
##########                     HBond_Acceptors:                   8
##########                        HBond_Donors:                   3
##########                         Heavy_Atoms:                  28
##########                          Grid_Score:          -34.708401
##########                     Grid_vdw_energy:          -34.731148
##########                      Grid_es_energy:            0.022748
##########           Internal_energy_repulsive:           14.720464

@<TRIPOS>MOLECULE
ZINC000929592477
 53 56 1 0 0
SMALL
USER_CHARGES


@<TRIPOS>ATOM
      1 O1        -10.1209    1.2158   58.2702 O.2     1  ZINC000929592477   -0.5700
      2 C2         -9.8775    0.0639   57.9662 C.2     1  ZINC000929592477    0.7100
      3 N3         -9.6410   -0.8510   58.9271 N.am    1  ZINC000929592477   -0.6800
      4 C4         -9.6702   -0.4735   60.2770 C.ar    1  ZINC000929592477    0.1600
      5 C5         -8.4976   -0.4643   61.0206 C.ar    1  ZINC000929592477   -0.1300
      6 C6         -8.5259   -0.0931   62.3500 C.ar    1  ZINC000929592477   -0.0800
      7 C7         -9.7279    0.2718   62.9437 C.ar    1  ZINC000929592477   -0.1000
      8 S8         -9.7646    0.7463   64.6401 S.3     1  ZINC000929592477   -0.1100
      9 C9         -8.0373    0.5470   65.1571 C.3     1  ZINC000929592477   -0.0800
     10 C10        -7.1898    1.7581   64.6945 C.3     1  ZINC000929592477   -0.1200
     11 C11        -5.9983    1.7394   65.6840 C.3     1  ZINC000929592477   -0.1200
     12 C12        -6.6312    1.3324   67.0306 C.3     1  ZINC000929592477   -0.1200
     13 C13        -7.9277    0.5741   66.6957 C.3     1  ZINC000929592477   -0.1000
     14 C14       -10.9009    0.2629   62.1991 C.ar    1  ZINC000929592477   -0.1200
     15 C15       -10.8707   -0.1034   60.8684 C.ar    1  ZINC000929592477   -0.1000
     16 N16        -9.8495   -0.2990   56.6685 N.am    1  ZINC000929592477   -0.7300
     17 C17       -10.1065    0.6955   55.6240 C.3     1  ZINC000929592477    0.1500
     18 H18       -10.6612    1.5424   56.0279 H       1  ZINC000929592477    0.1200
     19 C19       -10.8697    0.0568   54.4337 C.3     1  ZINC000929592477   -0.1400
     20 C20        -9.7113   -0.5855   53.6302 C.3     1  ZINC000929592477    0.1100
     21 N21        -8.5918    0.3653   53.7565 N.pl3   1  ZINC000929592477   -0.6000
     22 C22        -7.5375    0.4880   52.8748 C.2     1  ZINC000929592477    0.4600
     23 C23        -6.6703    1.5636   52.9703 C.2     1  ZINC000929592477   -0.4000
     24 C24        -5.6121    1.6509   52.0552 C.2     1  ZINC000929592477    0.5300
     25 O25        -4.8236    2.5817   52.1029 O.2     1  ZINC000929592477   -0.5500
     26 N26        -5.4813    0.6863   51.1205 N.am    1  ZINC000929592477   -0.6400
     27 C27        -6.3556   -0.3387   51.0741 C.2     1  ZINC000929592477    0.4100
     28 N28        -7.3422   -0.4372   51.9220 N.2     1  ZINC000929592477   -0.5700
     29 C29        -8.7848    1.1654   54.9804 C.3     1  ZINC000929592477    0.1100
     30 H30        -9.4508   -1.7708   58.6848 H       1  ZINC000929592477    0.4100
     31 H31        -7.5634   -0.7480   60.5591 H       1  ZINC000929592477    0.1300
     32 H32        -7.6140   -0.0866   62.9285 H       1  ZINC000929592477    0.1300
     33 H33        -7.6265   -0.3819   64.7618 H       1  ZINC000929592477    0.1000
     34 H34        -6.8437    1.6186   63.6703 H       1  ZINC000929592477    0.0700
     35 H35        -7.7561    2.6847   64.7892 H       1  ZINC000929592477    0.0800
     36 H36        -5.2561    1.0040   65.3735 H       1  ZINC000929592477    0.0700
     37 H37        -5.5482    2.7294   65.7577 H       1  ZINC000929592477    0.0700
     38 H38        -5.9509    0.6831   67.5819 H       1  ZINC000929592477    0.0700
     39 H39        -6.8597    2.2206   67.6195 H       1  ZINC000929592477    0.0700
     40 H40        -8.7853    1.0946   67.1219 H       1  ZINC000929592477    0.0700
     41 H41        -7.8765   -0.4429   67.0843 H       1  ZINC000929592477    0.0800
     42 H42       -11.8355    0.5466   62.6601 H       1  ZINC000929592477    0.1300
     43 H43       -11.7824   -0.1100   60.2894 H       1  ZINC000929592477    0.1400
     44 H44        -9.6591   -1.2188   56.4262 H       1  ZINC000929592477    0.4000
     45 H45       -11.5715   -0.7014   54.7813 H       1  ZINC000929592477    0.0900
     46 H46       -11.3798    0.8177   53.8432 H       1  ZINC000929592477    0.0900
     47 H47        -9.4405   -1.5498   54.0602 H       1  ZINC000929592477    0.0700
     48 H48        -9.9941   -0.7017   52.5840 H       1  ZINC000929592477    0.0800
     49 H49        -6.8062    2.3173   53.7316 H       1  ZINC000929592477    0.1500
     50 H50        -4.7551    0.7309   50.4790 H       1  ZINC000929592477    0.4200
     51 H51        -6.2336   -1.1003   50.3181 H       1  ZINC000929592477    0.2100
     52 H52        -8.8493    2.2232   54.7255 H       1  ZINC000929592477    0.0900
     53 H53        -7.9558    0.9974   55.6678 H       1  ZINC000929592477    0.0800
@<TRIPOS>BOND
     1     1     2    2
     2     2     3   am
     3     2    16   am
     4     3     4    1
     5     3    30    1
     6     4    15   ar
     7     4     5   ar
     8     5     6   ar
     9     5    31    1
    10     6     7   ar
    11     6    32    1
    12     7     8    1
    13     7    14   ar
    14     8     9    1
    15     9    13    1
    16     9    10    1
    17     9    33    1
    18    10    11    1
    19    10    34    1
    20    10    35    1
    21    11    12    1
    22    11    36    1
    23    11    37    1
    24    12    13    1
    25    12    38    1
    26    12    39    1
    27    13    40    1
    28    13    41    1
    29    14    15   ar
    30    14    42    1
    31    15    43    1
    32    16    17    1
    33    16    44    1
    34    17    18    1
    35    17    29    1
    36    17    19    1
    37    19    20    1
    38    19    45    1
    39    19    46    1
    40    20    21    1
    41    20    47    1
    42    20    48    1
    43    21    22    1
    44    21    29    1
    45    22    28    1
    46    22    23    2
    47    23    24    1
    48    23    49    1
    49    24    25    2
    50    24    26   am
    51    26    27    1
    52    26    50    1
    53    27    28    2
    54    27    51    1
    55    29    52    1
    56    29    53    1
@<TRIPOS>SUBSTRUCTURE
     1 ZINC000929592477        1 TEMP              0 ****  ****    0 ROOT


##########                                Name:    ZINC000058174787
##########                DOCK_Rotatable_Bonds:                   9
##########                         Heavy_Atoms:                  27
##########                    Molecular_Weight:             413.882
##########                DOCK_Rotatable_Bonds:                   9
##########                       Formal_Charge:           0.0200002
##########                     HBond_Acceptors:                  10
##########                        HBond_Donors:                   1
##########                         Heavy_Atoms:                  27
##########                          Grid_Score:          -34.661949
##########                     Grid_vdw_energy:          -32.740467
##########                      Grid_es_energy:           -1.921483
##########           Internal_energy_repulsive:            8.456837

@<TRIPOS>MOLECULE
ZINC000058174787
 47 48 1 0 0
SMALL
USER_CHARGES


@<TRIPOS>ATOM
      1 C1        -11.0278   -3.3375   57.8343 C.3     1  ZINC000058174787   -0.0700
      2 C2        -10.5274   -1.9369   57.5913 C.2     1  ZINC000058174787    0.2100
      3 N3         -9.4706   -1.4012   58.1384 N.2     1  ZINC000058174787   -0.4200
      4 C4         -9.3303   -0.1442   57.6916 C.2     1  ZINC000058174787   -0.5600
      5 S5         -8.0512    0.9793   58.1457 S.o2    1  ZINC000058174787    2.7400
      6 O6         -8.6953    2.1157   58.7052 O.2     1  ZINC000058174787   -0.9500
      7 O7         -7.0761    0.2166   58.8432 O.2     1  ZINC000058174787   -0.9600
      8 N8         -7.3300    1.4925   56.7460 N.am    1  ZINC000058174787   -1.1100
      9 C9         -8.1193    2.1918   55.7291 C.3     1  ZINC000058174787    0.1300
     10 C10        -8.2612    1.3018   54.4926 C.3     1  ZINC000058174787   -0.1200
     11 C11        -8.6599    2.1456   53.3095 C.2     1  ZINC000058174787    0.4700
     12 O12        -9.5539    2.9514   53.4158 O.2     1  ZINC000058174787   -0.5000
     13 O13        -8.0217    2.0021   52.1372 O.3     1  ZINC000058174787   -0.3300
     14 C14        -6.8123    2.7822   51.9453 C.3     1  ZINC000058174787    0.0400
     15 H15        -6.5045    3.2155   52.8969 H       1  ZINC000058174787    0.1200
     16 C16        -7.0820    3.9021   50.9385 C.3     1  ZINC000058174787   -0.1700
     17 C17        -5.7165    1.8895   51.4222 C.2     1  ZINC000058174787    0.4000
     18 O18        -5.9924    0.8175   50.9270 O.2     1  ZINC000058174787   -0.4200
     19 C19        -4.3125    2.3187   51.5120 C.ar    1  ZINC000058174787   -0.1600
     20 C20        -3.8211    2.8713   52.6997 C.ar    1  ZINC000058174787   -0.0600
     21 C21        -2.5044    3.2707   52.7767 C.ar    1  ZINC000058174787   -0.1200
     22 C22        -1.6677    3.1261   51.6816 C.ar    1  ZINC000058174787    0.0000
     23 Cl23       -0.0104    3.6314   51.7881 Cl      1  ZINC000058174787   -0.0500
     24 C24        -2.1476    2.5796   50.5021 C.ar    1  ZINC000058174787   -0.1200
     25 C25        -3.4606    2.1708   50.4122 C.ar    1  ZINC000058174787   -0.0400
     26 C26       -10.3385    0.1085   56.8354 C.2     1  ZINC000058174787    0.0700
     27 N27       -11.0952   -1.0301   56.7672 N.pl3   1  ZINC000058174787   -0.4500
     28 C28       -12.3007   -1.2257   55.9581 C.3     1  ZINC000058174787    0.0600
     29 H29       -10.5679   -4.0171   57.1167 H       1  ZINC000058174787    0.0900
     30 H30       -10.7662   -3.6464   58.8463 H       1  ZINC000058174787    0.1000
     31 H31       -12.1110   -3.3622   57.7152 H       1  ZINC000058174787    0.0800
     32 H32        -6.3850    1.3302   56.5996 H       1  ZINC000058174787    0.4200
     33 H33        -9.1076    2.4188   56.1288 H       1  ZINC000058174787    0.0900
     34 H34        -7.6170    3.1192   55.4534 H       1  ZINC000058174787    0.0900
     35 H35        -7.3094    0.8126   54.2859 H       1  ZINC000058174787    0.1200
     36 H36        -9.0259    0.5466   54.6744 H       1  ZINC000058174787    0.1200
     37 H37        -7.3897    3.4687   49.9868 H       1  ZINC000058174787    0.0800
     38 H38        -7.8745    4.5478   51.3169 H       1  ZINC000058174787    0.0800
     39 H39        -6.1741    4.4878   50.7944 H       1  ZINC000058174787    0.0800
     40 H40        -4.4722    2.9850   53.5538 H       1  ZINC000058174787    0.1400
     41 H41        -2.1238    3.6978   53.6928 H       1  ZINC000058174787    0.1400
     42 H42        -1.4898    2.4698   49.6526 H       1  ZINC000058174787    0.1400
     43 H43        -3.8331    1.7448   49.4925 H       1  ZINC000058174787    0.1500
     44 H44       -10.5139    1.0309   56.3017 H       1  ZINC000058174787    0.1900
     45 H45       -12.0215   -1.6114   54.9776 H       1  ZINC000058174787    0.0900
     46 H46       -12.9598   -1.9379   56.4545 H       1  ZINC000058174787    0.1000
     47 H47       -12.8176   -0.2734   55.8403 H       1  ZINC000058174787    0.0900
@<TRIPOS>BOND
     1     1     2    1
     2     1    29    1
     3     1    30    1
     4     1    31    1
     5     2    27    1
     6     2     3    2
     7     3     4    1
     8     4     5    1
     9     4    26    2
    10     5     6    2
    11     5     7    2
    12     5     8   am
    13     8     9    1
    14     8    32    1
    15     9    10    1
    16     9    33    1
    17     9    34    1
    18    10    11    1
    19    10    35    1
    20    10    36    1
    21    11    12    2
    22    11    13    1
    23    13    14    1
    24    14    15    1
    25    14    16    1
    26    14    17    1
    27    16    37    1
    28    16    38    1
    29    16    39    1
    30    17    18    2
    31    17    19    1
    32    19    25   ar
    33    19    20   ar
    34    20    21   ar
    35    20    40    1
    36    21    22   ar
    37    21    41    1
    38    22    23    1
    39    22    24   ar
    40    24    25   ar
    41    24    42    1
    42    25    43    1
    43    26    27    1
    44    26    44    1
    45    27    28    1
    46    28    45    1
    47    28    46    1
    48    28    47    1
@<TRIPOS>SUBSTRUCTURE
     1 ZINC000058174787        1 TEMP              0 ****  ****    0 ROOT


##########                                Name:    ZINC000859496582
##########                DOCK_Rotatable_Bonds:                  10
##########                         Heavy_Atoms:                  26
##########                    Molecular_Weight:             361.438
##########                DOCK_Rotatable_Bonds:                  10
##########                       Formal_Charge:           0.0100006
##########                     HBond_Acceptors:                   6
##########                        HBond_Donors:                   0
##########                         Heavy_Atoms:                  26
##########                          Grid_Score:          -34.606625
##########                     Grid_vdw_energy:          -32.080746
##########                      Grid_es_energy:           -2.525879
##########           Internal_energy_repulsive:           20.591619

@<TRIPOS>MOLECULE
ZINC000859496582
 53 54 1 0 0
SMALL
USER_CHARGES


@<TRIPOS>ATOM
      1 C1         -6.8210    0.5158   66.9727 C.3     1  ZINC000859496582    0.0300
      2 O2         -7.5580   -0.7347   67.0113 O.3     1  ZINC000859496582   -0.3600
      3 C3         -8.8459   -0.6948   66.6355 C.2     1  ZINC000859496582    0.4600
      4 O4         -9.5654   -1.6431   66.8426 O.2     1  ZINC000859496582   -0.5100
      5 C5         -9.3946    0.5329   65.9551 C.3     1  ZINC000859496582   -0.1100
      6 C6         -9.7605    0.1938   64.5087 C.3     1  ZINC000859496582   -0.1100
      7 C7         -8.4892    0.1475   63.6586 C.3     1  ZINC000859496582   -0.1200
      8 C8         -8.8627   -0.0997   62.1955 C.3     1  ZINC000859496582    0.0700
      9 O9         -9.2478    1.1556   61.5757 O.3     1  ZINC000859496582   -0.3500
     10 C10        -9.9774    1.0814   60.4514 C.2     1  ZINC000859496582    0.4700
     11 O11       -11.1685    1.2802   60.4900 O.2     1  ZINC000859496582   -0.5000
     12 C12        -9.3108    0.7501   59.1411 C.3     1  ZINC000859496582   -0.1000
     13 H13        -8.8969   -0.2571   59.1879 H       1  ZINC000859496582    0.1200
     14 C14        -8.1860    1.7526   58.8724 C.3     1  ZINC000859496582   -0.1100
     15 C15        -7.4870    1.3975   57.5581 C.3     1  ZINC000859496582   -0.1300
     16 C16        -8.4960    1.4832   56.4085 C.3     1  ZINC000859496582    0.1100
     17 N17        -9.6499    0.6315   56.7275 N.am    1  ZINC000859496582   -0.6100
     18 C18       -10.0672   -0.3124   55.8608 C.2     1  ZINC000859496582    0.5700
     19 O19        -9.4876   -0.4655   54.8034 O.2     1  ZINC000859496582   -0.5300
     20 C20       -11.2300   -1.1618   56.1961 C.ar    1  ZINC000859496582   -0.1400
     21 C21       -11.0393   -2.4006   56.8102 C.ar    1  ZINC000859496582   -0.0900
     22 C22       -12.1286   -3.1880   57.1208 C.ar    1  ZINC000859496582   -0.1200
     23 C23       -13.4080   -2.7523   56.8245 C.ar    1  ZINC000859496582   -0.0600
     24 C24       -14.5933   -3.6180   57.1663 C.3     1  ZINC000859496582   -0.1200
     25 C25       -13.6040   -1.5251   56.2163 C.ar    1  ZINC000859496582   -0.1200
     26 C26       -12.5235   -0.7257   55.9052 C.ar    1  ZINC000859496582   -0.0600
     27 C27       -10.3405    0.8277   58.0095 C.3     1  ZINC000859496582    0.1100
     28 H28        -7.2970    1.2387   67.6351 H       1  ZINC000859496582    0.0600
     29 H29        -5.7956    0.3434   67.2998 H       1  ZINC000859496582    0.1000
     30 H30        -6.8169    0.9038   65.9542 H       1  ZINC000859496582    0.0600
     31 H31       -10.2841    0.8746   66.4843 H       1  ZINC000859496582    0.1100
     32 H32        -8.6413    1.3207   65.9642 H       1  ZINC000859496582    0.1100
     33 H33       -10.2544   -0.7772   64.4769 H       1  ZINC000859496582    0.0800
     34 H34       -10.4327    0.9565   64.1155 H       1  ZINC000859496582    0.0800
     35 H35        -7.9606    1.0969   63.7432 H       1  ZINC000859496582    0.0800
     36 H36        -7.8459   -0.6591   64.0106 H       1  ZINC000859496582    0.0800
     37 H37        -8.0058   -0.5179   61.6674 H       1  ZINC000859496582    0.0700
     38 H38        -9.6966   -0.7999   62.1469 H       1  ZINC000859496582    0.0700
     39 H39        -8.6038    2.7569   58.8018 H       1  ZINC000859496582    0.0800
     40 H40        -7.4646    1.7163   59.6887 H       1  ZINC000859496582    0.0800
     41 H41        -6.6712    2.0977   57.3792 H       1  ZINC000859496582    0.0900
     42 H42        -7.0904    0.3840   57.6192 H       1  ZINC000859496582    0.0700
     43 H43        -8.8256    2.5151   56.2878 H       1  ZINC000859496582    0.0700
     44 H44        -8.0296    1.1362   55.4864 H       1  ZINC000859496582    0.1000
     45 H45       -10.0411   -2.7422   57.0412 H       1  ZINC000859496582    0.1300
     46 H46       -11.9825   -4.1468   57.5959 H       1  ZINC000859496582    0.1300
     47 H47       -14.9401   -3.3787   58.1715 H       1  ZINC000859496582    0.0800
     48 H48       -15.3955   -3.4342   56.4518 H       1  ZINC000859496582    0.0700
     49 H49       -14.3014   -4.6673   57.1228 H       1  ZINC000859496582    0.0700
     50 H50       -14.6052   -1.1907   55.9880 H       1  ZINC000859496582    0.1300
     51 H51       -12.6779    0.2322   55.4307 H       1  ZINC000859496582    0.1300
     52 H52       -11.0910    0.0486   58.1433 H       1  ZINC000859496582    0.1100
     53 H53       -10.8207    1.8062   58.0200 H       1  ZINC000859496582    0.0800
@<TRIPOS>BOND
     1     1     2    1
     2     1    28    1
     3     1    29    1
     4     1    30    1
     5     2     3    1
     6     3     4    2
     7     3     5    1
     8     5     6    1
     9     5    31    1
    10     5    32    1
    11     6     7    1
    12     6    33    1
    13     6    34    1
    14     7     8    1
    15     7    35    1
    16     7    36    1
    17     8     9    1
    18     8    37    1
    19     8    38    1
    20     9    10    1
    21    10    11    2
    22    10    12    1
    23    12    13    1
    24    12    27    1
    25    12    14    1
    26    14    15    1
    27    14    39    1
    28    14    40    1
    29    15    16    1
    30    15    41    1
    31    15    42    1
    32    16    17    1
    33    16    43    1
    34    16    44    1
    35    17    18   am
    36    17    27    1
    37    18    19    2
    38    18    20    1
    39    20    26   ar
    40    20    21   ar
    41    21    22   ar
    42    21    45    1
    43    22    23   ar
    44    22    46    1
    45    23    24    1
    46    23    25   ar
    47    24    47    1
    48    24    48    1
    49    24    49    1
    50    25    26   ar
    51    25    50    1
    52    26    51    1
    53    27    52    1
    54    27    53    1
@<TRIPOS>SUBSTRUCTURE
     1 ZINC000859496582        1 TEMP              0 ****  ****    0 ROOT


##########                                Name:    ZINC000185598309
##########                DOCK_Rotatable_Bonds:                  14
##########                         Heavy_Atoms:                  25
##########                    Molecular_Weight:             347.457
##########                DOCK_Rotatable_Bonds:                  14
##########                       Formal_Charge:               -0.02
##########                     HBond_Acceptors:                   6
##########                        HBond_Donors:                   4
##########                         Heavy_Atoms:                  25
##########                          Grid_Score:          -34.604347
##########                     Grid_vdw_energy:          -34.103600
##########                      Grid_es_energy:           -0.500749
##########           Internal_energy_repulsive:           10.726459

@<TRIPOS>MOLECULE
ZINC000185598309
 54 54 1 0 0
SMALL
USER_CHARGES


@<TRIPOS>ATOM
      1 C1         -5.7613    3.2788   56.9696 C.3     1  ZINC000185598309   -0.1300
      2 C2         -6.7282    3.5148   55.8380 C.2     1  ZINC000185598309   -0.1600
      3 C3         -7.2926    2.4975   55.2359 C.2     1  ZINC000185598309   -0.1600
      4 C4         -8.2610    2.7333   54.1055 C.3     1  ZINC000185598309   -0.0900
      5 C5         -8.0530    1.6699   53.0255 C.3     1  ZINC000185598309    0.1700
      6 H6         -8.4745    2.0212   52.0836 H       1  ZINC000185598309    0.1000
      7 C7         -8.7504    0.3741   53.4446 C.3     1  ZINC000185598309    0.0600
      8 O8         -8.3276   -0.6917   52.5921 O.3     1  ZINC000185598309   -0.5700
      9 N9         -6.6195    1.4199   52.8559 N.am    1  ZINC000185598309   -0.7300
     10 C10        -5.9779    1.8881   51.7670 C.2     1  ZINC000185598309    0.7000
     11 O11        -6.5887    2.5192   50.9261 O.2     1  ZINC000185598309   -0.5900
     12 N12        -4.6594    1.6568   51.6103 N.am    1  ZINC000185598309   -0.7400
     13 C13        -3.9626    2.1642   50.4257 C.3     1  ZINC000185598309    0.1800
     14 C14        -2.5428    2.5149   50.7900 C.ar    1  ZINC000185598309   -0.0900
     15 C15        -2.2760    3.1667   51.9796 C.ar    1  ZINC000185598309   -0.1100
     16 C16        -0.9745    3.4906   52.3174 C.ar    1  ZINC000185598309   -0.1000
     17 C17         0.0629    3.1633   51.4668 C.ar    1  ZINC000185598309   -0.1100
     18 C18        -0.2017    2.5082   50.2710 C.ar    1  ZINC000185598309    0.1400
     19 N19         0.8472    2.1747   49.4072 N.am    1  ZINC000185598309   -0.6800
     20 C20         1.6203    1.1020   49.6685 C.2     1  ZINC000185598309    0.5200
     21 O21         1.4068    0.4259   50.6526 O.2     1  ZINC000185598309   -0.5200
     22 C22         2.7501    0.7428   48.7381 C.3     1  ZINC000185598309   -0.1100
     23 H23         3.2372   -0.1659   49.0918 H       1  ZINC000185598309    0.1000
     24 C24         3.7662    1.8861   48.7045 C.3     1  ZINC000185598309   -0.1500
     25 C25         2.1972    0.5103   47.3305 C.3     1  ZINC000185598309   -0.1100
     26 C26         3.1272   -0.4348   46.5671 C.3     1  ZINC000185598309   -0.1600
     27 C27        -1.5090    2.1797   49.9374 C.ar    1  ZINC000185598309   -0.1300
     28 H28        -5.3975    4.2364   57.3423 H       1  ZINC000185598309    0.0600
     29 H29        -6.2667    2.7442   57.7738 H       1  ZINC000185598309    0.0600
     30 H30        -4.9203    2.6854   56.6110 H       1  ZINC000185598309    0.0600
     31 H31        -6.9558    4.5226   55.5234 H       1  ZINC000185598309    0.1100
     32 H32        -7.0640    1.4896   55.5496 H       1  ZINC000185598309    0.1100
     33 H33        -9.2818    2.6732   54.4830 H       1  ZINC000185598309    0.0900
     34 H34        -8.0887    3.7220   53.6799 H       1  ZINC000185598309    0.0800
     35 H35        -8.4901    0.1390   54.4767 H       1  ZINC000185598309    0.0500
     36 H36        -9.8300    0.4994   53.3618 H       1  ZINC000185598309    0.0500
     37 H37        -7.3711   -0.8343   52.5852 H       1  ZINC000185598309    0.3800
     38 H38        -6.1320    0.9175   53.5274 H       1  ZINC000185598309    0.4000
     39 H39        -4.1720    1.1543   52.2817 H       1  ZINC000185598309    0.4000
     40 H40        -3.9601    1.3987   49.6498 H       1  ZINC000185598309    0.0700
     41 H41        -4.4733    3.0538   50.0569 H       1  ZINC000185598309    0.0800
     42 H42        -3.0856    3.4237   52.6466 H       1  ZINC000185598309    0.1300
     43 H43        -0.7694    4.0004   53.2471 H       1  ZINC000185598309    0.1300
     44 H44         1.0789    3.4169   51.7309 H       1  ZINC000185598309    0.1300
     45 H45         1.0180    2.7154   48.6202 H       1  ZINC000185598309    0.4100
     46 H46         4.1601    2.0518   49.7074 H       1  ZINC000185598309    0.0600
     47 H47         4.5834    1.6264   48.0316 H       1  ZINC000185598309    0.0800
     48 H48         3.2791    2.7948   48.3509 H       1  ZINC000185598309    0.0600
     49 H49         1.2042    0.0661   47.3990 H       1  ZINC000185598309    0.0700
     50 H50         2.1339    1.4622   46.8033 H       1  ZINC000185598309    0.0700
     51 H51         4.1202    0.0095   46.4986 H       1  ZINC000185598309    0.0600
     52 H52         3.1905   -1.3866   47.0943 H       1  ZINC000185598309    0.0600
     53 H53         2.7334   -0.6003   45.5642 H       1  ZINC000185598309    0.0600
     54 H54        -1.7180    1.6702   49.0083 H       1  ZINC000185598309    0.1300
@<TRIPOS>BOND
     1     1     2    1
     2     1    28    1
     3     1    29    1
     4     1    30    1
     5     2     3    2
     6     2    31    1
     7     3     4    1
     8     3    32    1
     9     4     5    1
    10     4    33    1
    11     4    34    1
    12     5     6    1
    13     5     7    1
    14     5     9    1
    15     7     8    1
    16     7    35    1
    17     7    36    1
    18     8    37    1
    19     9    10   am
    20     9    38    1
    21    10    11    2
    22    10    12   am
    23    12    13    1
    24    12    39    1
    25    13    14    1
    26    13    40    1
    27    13    41    1
    28    14    27   ar
    29    14    15   ar
    30    15    16   ar
    31    15    42    1
    32    16    17   ar
    33    16    43    1
    34    17    18   ar
    35    17    44    1
    36    18    19    1
    37    18    27   ar
    38    19    20   am
    39    19    45    1
    40    20    21    2
    41    20    22    1
    42    22    23    1
    43    22    24    1
    44    22    25    1
    45    24    46    1
    46    24    47    1
    47    24    48    1
    48    25    26    1
    49    25    49    1
    50    25    50    1
    51    26    51    1
    52    26    52    1
    53    26    53    1
    54    27    54    1
@<TRIPOS>SUBSTRUCTURE
     1 ZINC000185598309        1 TEMP              0 ****  ****    0 ROOT


##########                                Name:    ZINC000762020937
##########                DOCK_Rotatable_Bonds:                  10
##########                         Heavy_Atoms:                  28
##########                    Molecular_Weight:             391.467
##########                DOCK_Rotatable_Bonds:                  10
##########                       Formal_Charge:         -1.8999e-07
##########                     HBond_Acceptors:                   8
##########                        HBond_Donors:                   1
##########                         Heavy_Atoms:                  28
##########                          Grid_Score:          -34.584244
##########                     Grid_vdw_energy:          -34.556992
##########                      Grid_es_energy:           -0.027254
##########           Internal_energy_repulsive:           45.413383

@<TRIPOS>MOLECULE
ZINC000762020937
 57 58 1 0 0
SMALL
USER_CHARGES


@<TRIPOS>ATOM
      1 C1         -0.1766    1.6017   48.7930 C.3     1  ZINC000762020937    0.0200
      2 O2         -1.5425    1.7919   49.1678 O.3     1  ZINC000762020937   -0.3000
      3 C3         -1.7762    2.3980   50.3625 C.ar    1  ZINC000762020937    0.1100
      4 C4         -0.7148    2.8178   51.1474 C.ar    1  ZINC000762020937   -0.1700
      5 C5         -0.9542    3.4344   52.3618 C.ar    1  ZINC000762020937   -0.1000
      6 C6         -2.2513    3.6331   52.7955 C.ar    1  ZINC000762020937   -0.1000
      7 C7         -2.5065    4.3053   54.1200 C.3     1  ZINC000762020937    0.0200
      8 C8         -1.7819    3.5586   55.2101 C.2     1  ZINC000762020937    0.1900
      9 N9         -0.9751    4.0738   56.1063 N.2     1  ZINC000762020937   -0.4700
     10 C10        -0.5679    3.0398   56.8638 C.2     1  ZINC000762020937    0.1600
     11 C11         0.3751    3.1108   58.0371 C.3     1  ZINC000762020937    0.2600
     12 H12         0.0700    3.9204   58.7002 H       1  ZINC000762020937    0.1200
     13 N13         0.3411    1.8418   58.7684 N.am    1  ZINC000762020937   -0.7100
     14 C14         0.2881    1.8413   60.1152 C.2     1  ZINC000762020937    0.6600
     15 O15         0.2670    2.8933   60.7228 O.2     1  ZINC000762020937   -0.5600
     16 O16         0.2584    0.6750   60.7872 O.3     1  ZINC000762020937   -0.3600
     17 C17         0.4124    0.7413   62.2295 C.3     1  ZINC000762020937    0.1400
     18 C18         1.7107    1.4755   62.5707 C.3     1  ZINC000762020937   -0.1800
     19 C19        -0.7737    1.4944   62.8350 C.3     1  ZINC000762020937   -0.1400
     20 C20         0.4626   -0.6765   62.8027 C.3     1  ZINC000762020937   -0.1800
     21 C21         1.7963    3.3716   57.5343 C.3     1  ZINC000762020937   -0.1000
     22 C22         2.7319    3.5682   58.7288 C.3     1  ZINC000762020937   -0.1400
     23 C23         2.2716    2.1767   56.7055 C.3     1  ZINC000762020937   -0.1400
     24 N24        -1.1371    1.9684   56.3984 N.2     1  ZINC000762020937   -0.3700
     25 O25        -1.8432    2.2456   55.4518 O.3     1  ZINC000762020937    0.0900
     26 C26        -3.3154    3.2169   52.0166 C.ar    1  ZINC000762020937   -0.1500
     27 C27        -3.0827    2.6033   50.7967 C.ar    1  ZINC000762020937    0.1000
     28 O28        -4.1280    2.1934   50.0296 O.3     1  ZINC000762020937   -0.3100
     29 C29        -5.0787    1.3196   50.6419 C.3     1  ZINC000762020937    0.0200
     30 H30         0.3218    2.5693   48.7330 H       1  ZINC000762020937    0.0600
     31 H31         0.3218    0.9819   49.5384 H       1  ZINC000762020937    0.0600
     32 H32        -0.1316    1.1089   47.8218 H       1  ZINC000762020937    0.1000
     33 H33         0.2998    2.6631   50.8110 H       1  ZINC000762020937    0.1400
     34 H34        -0.1257    3.7612   52.9727 H       1  ZINC000762020937    0.1300
     35 H35        -2.1453    5.3329   54.0815 H       1  ZINC000762020937    0.1200
     36 H36        -3.5766    4.3037   54.3279 H       1  ZINC000762020937    0.1200
     37 H37         0.3566    1.0019   58.2833 H       1  ZINC000762020937    0.4100
     38 H38         1.6749    2.4855   62.1622 H       1  ZINC000762020937    0.0600
     39 H39         1.8263    1.5252   63.6533 H       1  ZINC000762020937    0.0700
     40 H40         2.5556    0.9388   62.1392 H       1  ZINC000762020937    0.0900
     41 H41        -1.6986    0.9714   62.5920 H       1  ZINC000762020937    0.0700
     42 H42        -0.6581    1.5443   63.9178 H       1  ZINC000762020937    0.0800
     43 H43        -0.8094    2.5044   62.4267 H       1  ZINC000762020937    0.0700
     44 H44         1.3076   -1.2131   62.3713 H       1  ZINC000762020937    0.0900
     45 H45         0.5782   -0.6267   63.8854 H       1  ZINC000762020937    0.0700
     46 H46        -0.4623   -1.1995   62.5598 H       1  ZINC000762020937    0.0600
     47 H47         1.8039    4.2690   56.9155 H       1  ZINC000762020937    0.0800
     48 H48         2.7245    2.6709   59.3477 H       1  ZINC000762020937    0.0600
     49 H49         3.7445    3.7541   58.3706 H       1  ZINC000762020937    0.0600
     50 H50         2.3933    4.4195   59.3193 H       1  ZINC000762020937    0.0500
     51 H51         1.6050    2.0367   55.8544 H       1  ZINC000762020937    0.0500
     52 H52         3.2841    2.3626   56.3473 H       1  ZINC000762020937    0.0600
     53 H53         2.2641    1.2794   57.3243 H       1  ZINC000762020937    0.0700
     54 H54        -4.3281    3.3734   52.3579 H       1  ZINC000762020937    0.1400
     55 H55        -5.5248    1.8151   51.5043 H       1  ZINC000762020937    0.0600
     56 H56        -5.8587    1.0699   49.9227 H       1  ZINC000762020937    0.1000
     57 H57        -4.5778    0.4074   50.9659 H       1  ZINC000762020937    0.0600
@<TRIPOS>BOND
     1     1     2    1
     2     1    30    1
     3     1    31    1
     4     1    32    1
     5     2     3    1
     6     3    27   ar
     7     3     4   ar
     8     4     5   ar
     9     4    33    1
    10     5     6   ar
    11     5    34    1
    12     6     7    1
    13     6    26   ar
    14     7     8    1
    15     7    35    1
    16     7    36    1
    17     8    25    1
    18     8     9    2
    19     9    10    1
    20    10    11    1
    21    10    24    2
    22    11    12    1
    23    11    13    1
    24    11    21    1
    25    13    14   am
    26    13    37    1
    27    14    15    2
    28    14    16    1
    29    16    17    1
    30    17    18    1
    31    17    19    1
    32    17    20    1
    33    18    38    1
    34    18    39    1
    35    18    40    1
    36    19    41    1
    37    19    42    1
    38    19    43    1
    39    20    44    1
    40    20    45    1
    41    20    46    1
    42    21    22    1
    43    21    23    1
    44    21    47    1
    45    22    48    1
    46    22    49    1
    47    22    50    1
    48    23    51    1
    49    23    52    1
    50    23    53    1
    51    24    25    1
    52    26    27   ar
    53    26    54    1
    54    27    28    1
    55    28    29    1
    56    29    55    1
    57    29    56    1
    58    29    57    1
@<TRIPOS>SUBSTRUCTURE
     1 ZINC000762020937        1 TEMP              0 ****  ****    0 ROOT


##########                                Name:    ZINC000807524472
##########                DOCK_Rotatable_Bonds:                   9
##########                         Heavy_Atoms:                  28
##########                    Molecular_Weight:             410.534
##########                DOCK_Rotatable_Bonds:                   9
##########                       Formal_Charge:           0.0200006
##########                     HBond_Acceptors:                   8
##########                        HBond_Donors:                   0
##########                         Heavy_Atoms:                  28
##########                          Grid_Score:          -34.526234
##########                     Grid_vdw_energy:          -34.572102
##########                      Grid_es_energy:            0.045867
##########           Internal_energy_repulsive:           14.652987

@<TRIPOS>MOLECULE
ZINC000807524472
 58 60 1 0 0
SMALL
USER_CHARGES


@<TRIPOS>ATOM
      1 C1         -9.0123   -0.3952   66.6030 C.3     1  ZINC000807524472   -0.1500
      2 C2         -9.1900    0.2342   65.2197 C.3     1  ZINC000807524472    0.0600
      3 O3         -9.4102   -0.7948   64.2529 O.3     1  ZINC000807524472   -0.3800
      4 C4         -9.6498   -0.3085   62.9307 C.3     1  ZINC000807524472    0.0600
      5 C5         -8.4436    0.5071   62.4608 C.3     1  ZINC000807524472    0.0700
      6 O6         -8.6264    0.8845   61.0707 O.3     1  ZINC000807524472   -0.3500
      7 C7         -8.4032   -0.0679   60.1436 C.2     1  ZINC000807524472    0.5000
      8 O8         -7.4963   -0.8625   60.2952 O.2     1  ZINC000807524472   -0.4600
      9 C9         -9.2582   -0.1455   58.9468 C.ar    1  ZINC000807524472   -0.1200
     10 C10       -10.1726   -1.1925   58.8025 C.ar    1  ZINC000807524472    0.0400
     11 C11       -10.9698   -1.2589   57.6809 C.ar    1  ZINC000807524472   -0.7000
     12 S12       -12.1221   -2.5798   57.5020 S.o2    1  ZINC000807524472    2.6900
     13 O13       -12.4000   -2.6845   56.1123 O.2     1  ZINC000807524472   -0.9500
     14 O14       -11.6190   -3.6590   58.2774 O.2     1  ZINC000807524472   -0.9500
     15 N15       -13.5325   -2.1013   58.2261 N.am    1  ZINC000807524472   -0.9900
     16 C16       -14.7794   -2.0168   57.4536 C.3     1  ZINC000807524472    0.1200
     17 C17       -15.8574   -2.8400   58.1657 C.3     1  ZINC000807524472   -0.1400
     18 C18       -15.9824   -2.3645   59.6150 C.3     1  ZINC000807524472   -0.1200
     19 C19       -14.6524   -2.5796   60.3407 C.3     1  ZINC000807524472   -0.1400
     20 C20       -13.5619   -1.7593   59.6547 C.3     1  ZINC000807524472    0.1200
     21 C21       -10.8704   -0.2924   56.6927 C.ar    1  ZINC000807524472    0.0200
     22 C22        -9.9723    0.7475   56.8197 C.ar    1  ZINC000807524472   -0.1800
     23 C23        -9.1638    0.8353   57.9460 C.ar    1  ZINC000807524472    0.2000
     24 N24        -8.2598    1.8808   58.0765 N.3     1  ZINC000807524472   -0.4800
     25 C25        -7.2850    1.8846   56.9557 C.3     1  ZINC000807524472    0.0400
     26 C26        -6.7402    3.3349   56.9645 C.3     1  ZINC000807524472   -0.1200
     27 C27        -7.9908    4.1718   57.3188 C.3     1  ZINC000807524472   -0.1300
     28 C28        -8.9489    3.1881   58.0159 C.3     1  ZINC000807524472    0.0400
     29 H29        -8.1558   -1.0692   66.5882 H       1  ZINC000807524472    0.0600
     30 H30        -8.8444    0.3896   67.3403 H       1  ZINC000807524472    0.0700
     31 H31        -9.9102   -0.9546   66.8657 H       1  ZINC000807524472    0.0700
     32 H32       -10.0466    0.9081   65.2345 H       1  ZINC000807524472    0.0500
     33 H33        -8.2921    0.7935   64.9570 H       1  ZINC000807524472    0.0500
     34 H34        -9.8039   -1.1508   62.2562 H       1  ZINC000807524472    0.0600
     35 H35       -10.5378    0.3237   62.9315 H       1  ZINC000807524472    0.0700
     36 H36        -8.3518    1.4049   63.0720 H       1  ZINC000807524472    0.0900
     37 H37        -7.5389   -0.0931   62.5584 H       1  ZINC000807524472    0.0800
     38 H38       -10.2541   -1.9487   59.5692 H       1  ZINC000807524472    0.1600
     39 H39       -15.0982   -0.9765   57.3873 H       1  ZINC000807524472    0.0800
     40 H40       -14.6167   -2.4158   56.4524 H       1  ZINC000807524472    0.0900
     41 H41       -16.8118   -2.7081   57.6560 H       1  ZINC000807524472    0.0800
     42 H42       -15.5792   -3.8938   58.1513 H       1  ZINC000807524472    0.0700
     43 H43       -16.2363   -1.3045   59.6288 H       1  ZINC000807524472    0.0700
     44 H44       -16.7660   -2.9320   60.1171 H       1  ZINC000807524472    0.0700
     45 H45       -14.7490   -2.2624   61.3791 H       1  ZINC000807524472    0.0800
     46 H46       -14.3855   -3.6359   60.3058 H       1  ZINC000807524472    0.0700
     47 H47       -12.5959   -1.9857   60.1060 H       1  ZINC000807524472    0.0900
     48 H48       -13.7794   -0.6971   59.7657 H       1  ZINC000807524472    0.0800
     49 H49       -11.4999   -0.3537   55.8172 H       1  ZINC000807524472    0.1500
     50 H50        -9.9010    1.4964   56.0448 H       1  ZINC000807524472    0.1400
     51 H51        -6.4823    1.1709   57.1416 H       1  ZINC000807524472    0.0900
     52 H52        -7.7838    1.6667   56.0114 H       1  ZINC000807524472    0.0500
     53 H53        -5.9690    3.4527   57.7258 H       1  ZINC000807524472    0.0800
     54 H54        -6.3582    3.6095   55.9812 H       1  ZINC000807524472    0.0800
     55 H55        -7.7237    4.9834   57.9957 H       1  ZINC000807524472    0.0800
     56 H56        -8.4493    4.5689   56.4132 H       1  ZINC000807524472    0.0700
     57 H57        -9.8699    3.0960   57.4402 H       1  ZINC000807524472    0.0500
     58 H58        -9.1712    3.5378   59.0240 H       1  ZINC000807524472    0.0900
@<TRIPOS>BOND
     1     1     2    1
     2     1    29    1
     3     1    30    1
     4     1    31    1
     5     2     3    1
     6     2    32    1
     7     2    33    1
     8     3     4    1
     9     4     5    1
    10     4    34    1
    11     4    35    1
    12     5     6    1
    13     5    36    1
    14     5    37    1
    15     6     7    1
    16     7     8    2
    17     7     9    1
    18     9    23   ar
    19     9    10   ar
    20    10    11   ar
    21    10    38    1
    22    11    12    1
    23    11    21   ar
    24    12    13    2
    25    12    14    2
    26    12    15   am
    27    15    20    1
    28    15    16    1
    29    16    17    1
    30    16    39    1
    31    16    40    1
    32    17    18    1
    33    17    41    1
    34    17    42    1
    35    18    19    1
    36    18    43    1
    37    18    44    1
    38    19    20    1
    39    19    45    1
    40    19    46    1
    41    20    47    1
    42    20    48    1
    43    21    22   ar
    44    21    49    1
    45    22    23   ar
    46    22    50    1
    47    23    24    1
    48    24    28    1
    49    24    25    1
    50    25    26    1
    51    25    51    1
    52    25    52    1
    53    26    27    1
    54    26    53    1
    55    26    54    1
    56    27    28    1
    57    27    55    1
    58    27    56    1
    59    28    57    1
    60    28    58    1
@<TRIPOS>SUBSTRUCTURE
     1 ZINC000807524472        1 TEMP              0 ****  ****    0 ROOT


##########                                Name:    ZINC000015179664
##########                DOCK_Rotatable_Bonds:                   8
##########                         Heavy_Atoms:                  25
##########                    Molecular_Weight:             361.422
##########                DOCK_Rotatable_Bonds:                   8
##########                       Formal_Charge:        -2.23517e-07
##########                     HBond_Acceptors:                   8
##########                        HBond_Donors:                   1
##########                         Heavy_Atoms:                  25
##########                          Grid_Score:          -34.518719
##########                     Grid_vdw_energy:          -31.838533
##########                      Grid_es_energy:           -2.680187
##########           Internal_energy_repulsive:           21.347986

@<TRIPOS>MOLECULE
ZINC000015179664
 44 45 1 0 0
SMALL
USER_CHARGES


@<TRIPOS>ATOM
      1 C1         -5.4916    5.3234   54.0458 C.3     1  ZINC000015179664   -0.1600
      2 C2         -4.1343    4.6176   54.0674 C.3     1  ZINC000015179664    0.1800
      3 H3         -3.3451    5.3414   53.8645 H       1  ZINC000015179664    0.1200
      4 C4         -4.1112    3.5406   53.0135 C.ar    1  ZINC000015179664   -0.1000
      5 C5         -3.0622    3.4742   52.1161 C.ar    1  ZINC000015179664   -0.0700
      6 C6         -3.0412    2.4860   51.1493 C.ar    1  ZINC000015179664   -0.1200
      7 C7         -4.0689    1.5644   51.0806 C.ar    1  ZINC000015179664   -0.0500
      8 C8         -5.1177    1.6302   51.9790 C.ar    1  ZINC000015179664   -0.0400
      9 N9         -6.2186    0.6435   51.9051 N.pl3   1  ZINC000015179664    0.0300
     10 O10        -6.2004   -0.2265   51.0529 O.2     1  ZINC000015179664   -0.1600
     11 O11        -7.1426    0.7016   52.6966 O.2     1  ZINC000015179664   -0.1500
     12 C12        -5.1367    2.6155   52.9482 C.ar    1  ZINC000015179664   -0.0400
     13 N13        -3.9179    4.0158   55.3854 N.am    1  ZINC000015179664   -0.6100
     14 C14        -5.0497    3.8145   56.2936 C.3     1  ZINC000015179664    0.0600
     15 C15        -2.6775    3.6471   55.7624 C.2     1  ZINC000015179664    0.5200
     16 O16        -1.7408    3.8124   55.0100 O.2     1  ZINC000015179664   -0.5200
     17 C17        -2.4546    3.0297   57.1189 C.3     1  ZINC000015179664   -0.1500
     18 C18        -0.9893    2.6107   57.2540 C.3     1  ZINC000015179664    0.1300
     19 N19        -0.8216    1.8041   58.4654 N.am    1  ZINC000015179664   -0.7300
     20 C20        -0.7360    2.4050   59.6686 C.2     1  ZINC000015179664    0.5800
     21 O21        -0.7963    3.6172   59.7488 O.2     1  ZINC000015179664   -0.5300
     22 C22        -0.5693    1.5944   60.8859 C.2     1  ZINC000015179664   -0.1500
     23 C23        -0.7859    2.0723   62.1406 C.2     1  ZINC000015179664   -0.2200
     24 S24        -0.4989    0.8634   63.3073 S.3     1  ZINC000015179664    0.1900
     25 C25        -0.0752   -0.3219   62.0843 C.2     1  ZINC000015179664   -0.2300
     26 C26        -0.1647    0.2080   60.8702 C.2     1  ZINC000015179664   -0.0900
     27 H27        -5.6527    5.7712   53.0651 H       1  ZINC000015179664    0.0800
     28 H28        -6.2809    4.5995   54.2486 H       1  ZINC000015179664    0.0600
     29 H29        -5.5083    6.1024   54.8080 H       1  ZINC000015179664    0.0700
     30 H30        -2.2592    4.1943   52.1697 H       1  ZINC000015179664    0.1500
     31 H31        -2.2219    2.4345   50.4475 H       1  ZINC000015179664    0.1500
     32 H32        -4.0528    0.7929   50.3250 H       1  ZINC000015179664    0.1600
     33 H33        -5.9559    2.6670   53.6500 H       1  ZINC000015179664    0.1600
     34 H34        -5.5120    2.8489   56.0896 H       1  ZINC000015179664    0.0600
     35 H35        -4.6967    3.8378   57.3247 H       1  ZINC000015179664    0.0800
     36 H36        -5.7823    4.6074   56.1424 H       1  ZINC000015179664    0.0800
     37 H37        -2.6973    3.7571   57.8935 H       1  ZINC000015179664    0.1000
     38 H38        -3.0945    2.1543   57.2293 H       1  ZINC000015179664    0.1000
     39 H39        -0.6976    2.0234   56.3832 H       1  ZINC000015179664    0.0800
     40 H40        -0.3618    3.4995   57.3195 H       1  ZINC000015179664    0.0800
     41 H41        -0.7723    0.8374   58.4014 H       1  ZINC000015179664    0.4000
     42 H42        -1.0976    3.0813   62.3671 H       1  ZINC000015179664    0.1700
     43 H43         0.2142   -1.3418   62.2903 H       1  ZINC000015179664    0.1700
     44 H44         0.0503   -0.3392   59.9643 H       1  ZINC000015179664    0.1600
@<TRIPOS>BOND
     1     1     2    1
     2     1    27    1
     3     1    28    1
     4     1    29    1
     5     2     3    1
     6     2     4    1
     7     2    13    1
     8     4    12   ar
     9     4     5   ar
    10     5     6   ar
    11     5    30    1
    12     6     7   ar
    13     6    31    1
    14     7     8   ar
    15     7    32    1
    16     8     9    1
    17     8    12   ar
    18     9    10    2
    19     9    11    2
    20    12    33    1
    21    13    14    1
    22    13    15   am
    23    14    34    1
    24    14    35    1
    25    14    36    1
    26    15    16    2
    27    15    17    1
    28    17    18    1
    29    17    37    1
    30    17    38    1
    31    18    19    1
    32    18    39    1
    33    18    40    1
    34    19    20   am
    35    19    41    1
    36    20    21    2
    37    20    22    1
    38    22    26    1
    39    22    23    2
    40    23    24    1
    41    23    42    1
    42    24    25    1
    43    25    26    2
    44    25    43    1
    45    26    44    1
@<TRIPOS>SUBSTRUCTURE
     1 ZINC000015179664        1 TEMP              0 ****  ****    0 ROOT


##########                                Name:    ZINC000805177769
##########                DOCK_Rotatable_Bonds:                  10
##########                         Heavy_Atoms:                  30
##########                    Molecular_Weight:             417.548
##########                DOCK_Rotatable_Bonds:                  10
##########                       Formal_Charge:           0.0199995
##########                     HBond_Acceptors:                   7
##########                        HBond_Donors:                   1
##########                         Heavy_Atoms:                  30
##########                          Grid_Score:          -34.492069
##########                     Grid_vdw_energy:          -32.539703
##########                      Grid_es_energy:           -1.952367
##########           Internal_energy_repulsive:           56.337307

@<TRIPOS>MOLECULE
ZINC000805177769
 65 66 1 0 0
SMALL
USER_CHARGES


@<TRIPOS>ATOM
      1 C1         -2.0786    3.4842   51.9999 C.3     1  ZINC000805177769   -0.1200
      2 C2         -2.8184    3.6465   53.3027 C.ar    1  ZINC000805177769   -0.0800
      3 C3         -4.0850    4.1995   53.3139 C.ar    1  ZINC000805177769   -0.1200
      4 C4         -4.7637    4.3485   54.5093 C.ar    1  ZINC000805177769   -0.1100
      5 C5         -4.1757    3.9441   55.6929 C.ar    1  ZINC000805177769   -0.0900
      6 C6         -4.9152    4.1070   56.9958 C.3     1  ZINC000805177769   -0.0900
      7 C7         -6.4062    3.8460   56.7719 C.3     1  ZINC000805177769    0.1500
      8 H8         -6.5610    3.4668   55.7618 H       1  ZINC000805177769    0.1000
      9 C9         -7.1849    5.1506   56.9519 C.3     1  ZINC000805177769   -0.1700
     10 N10        -6.8799    2.8565   57.7428 N.am    1  ZINC000805177769   -0.6900
     11 C11        -7.3653    1.6734   57.3171 C.2     1  ZINC000805177769    0.5100
     12 O12        -7.4114    1.4285   56.1296 O.2     1  ZINC000805177769   -0.5100
     13 C13        -7.8469    0.6633   58.3077 C.2     1  ZINC000805177769    0.5200
     14 O14        -7.2159    0.4618   59.3245 O.2     1  ZINC000805177769   -0.5200
     15 N15        -8.9821   -0.0238   58.0718 N.am    1  ZINC000805177769   -0.5900
     16 C16        -9.5674   -1.0414   58.9569 C.3     1  ZINC000805177769    0.1100
     17 C17       -10.8711   -1.5316   58.2923 C.3     1  ZINC000805177769   -0.1500
     18 C18       -11.2413   -0.3585   57.3465 C.3     1  ZINC000805177769    0.1500
     19 H19       -11.7652    0.4293   57.8878 H       1  ZINC000805177769    0.1200
     20 N20       -12.0376   -0.8308   56.2111 N.am    1  ZINC000805177769   -0.5900
     21 C21       -11.5723   -0.5964   54.8419 C.3     1  ZINC000805177769    0.0800
     22 C22       -13.1985   -1.4809   56.4262 C.2     1  ZINC000805177769    0.6600
     23 O23       -13.8599   -1.8712   55.4845 O.2     1  ZINC000805177769   -0.5600
     24 O24       -13.6255   -1.6976   57.6846 O.3     1  ZINC000805177769   -0.3600
     25 C25       -14.7117   -2.6456   57.8580 C.3     1  ZINC000805177769    0.1400
     26 C26       -14.9732   -2.8541   59.3511 C.3     1  ZINC000805177769   -0.1800
     27 C27       -15.9757   -2.1005   57.1902 C.3     1  ZINC000805177769   -0.1400
     28 C28       -14.3307   -3.9808   57.2156 C.3     1  ZINC000805177769   -0.1800
     29 C29        -9.8458    0.1250   56.8864 C.3     1  ZINC000805177769    0.0900
     30 C30        -2.9092    3.3897   55.6815 C.ar    1  ZINC000805177769   -0.0800
     31 C31        -2.2683    2.9484   56.9720 C.3     1  ZINC000805177769   -0.1200
     32 C32        -2.2323    3.2372   54.4861 C.ar    1  ZINC000805177769   -0.1200
     33 H33        -2.3134    2.5115   51.5675 H       1  ZINC000805177769    0.0700
     34 H34        -2.3816    4.2713   51.3094 H       1  ZINC000805177769    0.0700
     35 H35        -1.0058    3.5522   52.1803 H       1  ZINC000805177769    0.0700
     36 H36        -4.5445    4.5155   52.3891 H       1  ZINC000805177769    0.1200
     37 H37        -5.7532    4.7813   54.5181 H       1  ZINC000805177769    0.1200
     38 H38        -4.5275    3.3958   57.7251 H       1  ZINC000805177769    0.0800
     39 H39        -4.7760    5.1218   57.3683 H       1  ZINC000805177769    0.0900
     40 H40        -7.0300    5.5297   57.9620 H       1  ZINC000805177769    0.0600
     41 H41        -6.8325    5.8867   56.2294 H       1  ZINC000805177769    0.0700
     42 H42        -8.2471    4.9647   56.7924 H       1  ZINC000805177769    0.0600
     43 H43        -6.8442    3.0528   58.6921 H       1  ZINC000805177769    0.4100
     44 H44        -8.8744   -1.8748   59.0729 H       1  ZINC000805177769    0.0900
     45 H45        -9.7894   -0.6030   59.9298 H       1  ZINC000805177769    0.0900
     46 H46       -10.6944   -2.4445   57.7235 H       1  ZINC000805177769    0.0900
     47 H47       -11.6502   -1.6856   59.0387 H       1  ZINC000805177769    0.0900
     48 H48       -10.9522   -1.4332   54.5206 H       1  ZINC000805177769    0.0600
     49 H49       -12.4310   -0.5042   54.1771 H       1  ZINC000805177769    0.0800
     50 H50       -10.9873    0.3228   54.8094 H       1  ZINC000805177769    0.0800
     51 H51       -15.2445   -1.9028   59.8088 H       1  ZINC000805177769    0.0600
     52 H52       -15.7884   -3.5657   59.4813 H       1  ZINC000805177769    0.0700
     53 H53       -14.0725   -3.2424   59.8268 H       1  ZINC000805177769    0.0900
     54 H54       -15.7895   -1.9519   56.1266 H       1  ZINC000805177769    0.0700
     55 H55       -16.7911   -2.8120   57.3204 H       1  ZINC000805177769    0.0800
     56 H56       -16.2472   -1.1491   57.6480 H       1  ZINC000805177769    0.0700
     57 H57       -13.4303   -4.3691   57.6914 H       1  ZINC000805177769    0.0900
     58 H58       -15.1461   -4.6923   57.3457 H       1  ZINC000805177769    0.0700
     59 H59       -14.1445   -3.8322   56.1519 H       1  ZINC000805177769    0.0600
     60 H60        -9.8900    1.1681   56.5735 H       1  ZINC000805177769    0.0900
     61 H61        -9.4766   -0.5004   56.0736 H       1  ZINC000805177769    0.0800
     62 H62        -2.5241    1.9069   57.1671 H       1  ZINC000805177769    0.0700
     63 H63        -1.1857    3.0479   56.8927 H       1  ZINC000805177769    0.0700
     64 H64        -2.6314    3.5710   57.7897 H       1  ZINC000805177769    0.0700
     65 H65        -1.2429    2.8042   54.4772 H       1  ZINC000805177769    0.1200
@<TRIPOS>BOND
     1     1     2    1
     2     1    33    1
     3     1    34    1
     4     1    35    1
     5     2    32   ar
     6     2     3   ar
     7     3     4   ar
     8     3    36    1
     9     4     5   ar
    10     4    37    1
    11     5     6    1
    12     5    30   ar
    13     6     7    1
    14     6    38    1
    15     6    39    1
    16     7     8    1
    17     7     9    1
    18     7    10    1
    19     9    40    1
    20     9    41    1
    21     9    42    1
    22    10    11   am
    23    10    43    1
    24    11    12    2
    25    11    13    1
    26    13    14    2
    27    13    15   am
    28    15    29    1
    29    15    16    1
    30    16    17    1
    31    16    44    1
    32    16    45    1
    33    17    18    1
    34    17    46    1
    35    17    47    1
    36    18    19    1
    37    18    20    1
    38    18    29    1
    39    20    21    1
    40    20    22   am
    41    21    48    1
    42    21    49    1
    43    21    50    1
    44    22    23    2
    45    22    24    1
    46    24    25    1
    47    25    26    1
    48    25    27    1
    49    25    28    1
    50    26    51    1
    51    26    52    1
    52    26    53    1
    53    27    54    1
    54    27    55    1
    55    27    56    1
    56    28    57    1
    57    28    58    1
    58    28    59    1
    59    29    60    1
    60    29    61    1
    61    30    31    1
    62    30    32   ar
    63    31    62    1
    64    31    63    1
    65    31    64    1
    66    32    65    1
@<TRIPOS>SUBSTRUCTURE
     1 ZINC000805177769        1 TEMP              0 ****  ****    0 ROOT


##########                                Name:    ZINC000541000201
##########                DOCK_Rotatable_Bonds:                  10
##########                         Heavy_Atoms:                  30
##########                    Molecular_Weight:             420.413
##########                DOCK_Rotatable_Bonds:                  10
##########                       Formal_Charge:               -0.03
##########                     HBond_Acceptors:                   9
##########                        HBond_Donors:                   1
##########                         Heavy_Atoms:                  30
##########                          Grid_Score:          -34.417393
##########                     Grid_vdw_energy:          -33.763519
##########                      Grid_es_energy:           -0.653872
##########           Internal_energy_repulsive:           16.438538

@<TRIPOS>MOLECULE
ZINC000541000201
 52 54 1 0 0
SMALL
USER_CHARGES


@<TRIPOS>ATOM
      1 C1         -2.4584    4.0419   55.4698 C.3     1  ZINC000541000201    0.0400
      2 O2         -1.6857    3.7296   54.2807 O.3     1  ZINC000541000201   -0.3500
      3 C3         -1.9347    4.4607   53.1828 C.2     1  ZINC000541000201    0.4500
      4 O4         -1.6643    5.6382   53.1669 O.2     1  ZINC000541000201   -0.4900
      5 C5         -2.5514    3.8127   51.9700 C.3     1  ZINC000541000201    0.2100
      6 H6         -2.9825    4.5805   51.3275 H       1  ZINC000541000201    0.1400
      7 N7         -3.6024    2.8841   52.3938 N.am    1  ZINC000541000201   -0.7100
      8 C8         -4.7402    2.7823   51.6787 C.2     1  ZINC000541000201    0.5800
      9 O9         -4.8951    3.4621   50.6827 O.2     1  ZINC000541000201   -0.5300
     10 C10        -5.7984    1.8454   52.1047 C.ar    1  ZINC000541000201   -0.2300
     11 C11        -6.0362    0.6654   51.3850 C.ar    1  ZINC000541000201    0.0200
     12 C12        -7.0365   -0.1787   51.8224 C.ar    1  ZINC000541000201   -0.2000
     13 C13        -7.7702    0.1648   52.9534 C.ar    1  ZINC000541000201    0.3500
     14 O14        -8.7535   -0.6602   53.3875 O.3     1  ZINC000541000201   -0.2900
     15 C15        -9.6609   -0.1337   54.3578 C.3     1  ZINC000541000201    0.0800
     16 C16       -10.6355    0.8733   53.6982 C.3     1  ZINC000541000201   -0.1400
     17 C17       -11.8475    0.8576   54.6626 C.3     1  ZINC000541000201   -0.1200
     18 C18       -11.9690   -0.6186   55.0936 C.3     1  ZINC000541000201   -0.1200
     19 C19       -10.5786   -1.2489   54.8998 C.3     1  ZINC000541000201   -0.1200
     20 N20        -7.5212    1.2865   53.6121 N.ar    1  ZINC000541000201   -0.5400
     21 C21        -6.5733    2.1176   53.2331 C.ar    1  ZINC000541000201    0.1800
     22 C22        -1.4913    3.0585   51.2096 C.ar    1  ZINC000541000201   -0.1300
     23 C23        -1.8333    2.3373   50.0805 C.ar    1  ZINC000541000201   -0.0700
     24 C24        -0.8633    1.6450   49.3818 C.ar    1  ZINC000541000201   -0.1300
     25 C25         0.4548    1.6741   49.8135 C.ar    1  ZINC000541000201    0.1200
     26 O26         1.4108    0.9942   49.1275 O.3     1  ZINC000541000201   -0.3200
     27 C27         2.2267    0.0903   49.8753 C.3     1  ZINC000541000201    0.4100
     28 F28         2.6656   -0.9423   49.0395 F       1  ZINC000541000201   -0.2000
     29 F29         3.3326    0.7763   50.3890 F       1  ZINC000541000201   -0.2000
     30 C30         0.7953    2.3988   50.9464 C.ar    1  ZINC000541000201   -0.1900
     31 C31        -0.1776    3.0933   51.6389 C.ar    1  ZINC000541000201   -0.0500
     32 H32        -2.1593    3.3792   56.2819 H       1  ZINC000541000201    0.1000
     33 H33        -2.2769    5.0769   55.7597 H       1  ZINC000541000201    0.0600
     34 H34        -3.5192    3.9039   55.2603 H       1  ZINC000541000201    0.0600
     35 H35        -3.4793    2.3426   53.1892 H       1  ZINC000541000201    0.4100
     36 H36        -5.4514    0.4236   50.5098 H       1  ZINC000541000201    0.1600
     37 H37        -7.2475   -1.0958   51.2924 H       1  ZINC000541000201    0.1500
     38 H38        -9.1138    0.3399   55.1729 H       1  ZINC000541000201    0.1000
     39 H39       -10.1912    1.8675   53.6525 H       1  ZINC000541000201    0.0700
     40 H40       -10.9280    0.5336   52.7047 H       1  ZINC000541000201    0.0800
     41 H41       -11.6553    1.4929   55.5273 H       1  ZINC000541000201    0.0700
     42 H42       -12.7512    1.1795   54.1449 H       1  ZINC000541000201    0.0700
     43 H43       -12.2634   -0.6787   56.1414 H       1  ZINC000541000201    0.0700
     44 H44       -12.7013   -1.1307   54.4696 H       1  ZINC000541000201    0.0700
     45 H45       -10.6363   -2.0669   54.1818 H       1  ZINC000541000201    0.0800
     46 H46       -10.1984   -1.6149   55.8535 H       1  ZINC000541000201    0.0700
     47 H47        -6.3992    3.0228   53.7959 H       1  ZINC000541000201    0.1600
     48 H48        -2.8595    2.3150   49.7449 H       1  ZINC000541000201    0.1300
     49 H49        -1.1311    1.0813   48.5003 H       1  ZINC000541000201    0.1400
     50 H50         1.6457   -0.3292   50.6966 H       1  ZINC000541000201    0.1900
     51 H51         1.8207    2.4228   51.2846 H       1  ZINC000541000201    0.1400
     52 H52         0.0871    3.6580   52.5207 H       1  ZINC000541000201    0.1400
@<TRIPOS>BOND
     1     1     2    1
     2     1    32    1
     3     1    33    1
     4     1    34    1
     5     2     3    1
     6     3     4    2
     7     3     5    1
     8     5     6    1
     9     5     7    1
    10     5    22    1
    11     7     8   am
    12     7    35    1
    13     8     9    2
    14     8    10    1
    15    10    21   ar
    16    10    11   ar
    17    11    12   ar
    18    11    36    1
    19    12    13   ar
    20    12    37    1
    21    13    14    1
    22    13    20   ar
    23    14    15    1
    24    15    19    1
    25    15    16    1
    26    15    38    1
    27    16    17    1
    28    16    39    1
    29    16    40    1
    30    17    18    1
    31    17    41    1
    32    17    42    1
    33    18    19    1
    34    18    43    1
    35    18    44    1
    36    19    45    1
    37    19    46    1
    38    20    21   ar
    39    21    47    1
    40    22    31   ar
    41    22    23   ar
    42    23    24   ar
    43    23    48    1
    44    24    25   ar
    45    24    49    1
    46    25    26    1
    47    25    30   ar
    48    26    27    1
    49    27    28    1
    50    27    29    1
    51    27    50    1
    52    30    31   ar
    53    30    51    1
    54    31    52    1
@<TRIPOS>SUBSTRUCTURE
     1 ZINC000541000201        1 TEMP              0 ****  ****    0 ROOT


##########                                Name:    ZINC000550217006
##########                DOCK_Rotatable_Bonds:                   7
##########                         Heavy_Atoms:                  27
##########                    Molecular_Weight:             367.404
##########                DOCK_Rotatable_Bonds:                   7
##########                       Formal_Charge:          0.00999951
##########                     HBond_Acceptors:                   7
##########                        HBond_Donors:                   3
##########                         Heavy_Atoms:                  27
##########                          Grid_Score:          -34.369003
##########                     Grid_vdw_energy:          -33.389080
##########                      Grid_es_energy:           -0.979923
##########           Internal_energy_repulsive:           18.042439

@<TRIPOS>MOLECULE
ZINC000550217006
 48 50 1 0 0
SMALL
USER_CHARGES


@<TRIPOS>ATOM
      1 C1         -9.5085    2.5971   53.6702 C.3     1  ZINC000550217006   -0.1500
      2 C2         -8.1901    2.6441   54.4453 C.3     1  ZINC000550217006    0.0500
      3 O3         -7.1122    2.8808   53.5376 O.3     1  ZINC000550217006   -0.3100
      4 C4         -6.7914    1.8728   52.6844 C.ar    1  ZINC000550217006    0.1400
      5 C5         -7.2864    0.5952   52.9011 C.ar    1  ZINC000550217006   -0.2100
      6 C6         -6.9593   -0.4278   52.0320 C.ar    1  ZINC000550217006   -0.0800
      7 C7         -6.1389   -0.1792   50.9475 C.ar    1  ZINC000550217006   -0.1600
      8 C8         -5.6437    1.0935   50.7295 C.ar    1  ZINC000550217006   -0.0700
      9 C9         -5.9727    2.1209   51.5919 C.ar    1  ZINC000550217006   -0.1200
     10 C10        -5.4332    3.5077   51.3536 C.3     1  ZINC000550217006   -0.0800
     11 C11        -4.0744    3.6516   52.0421 C.3     1  ZINC000550217006    0.1300
     12 N12        -3.0478    2.9798   51.2416 N.am    1  ZINC000550217006   -0.7200
     13 C13        -1.7528    3.3276   51.3774 C.2     1  ZINC000550217006    0.5600
     14 O14        -1.4369    4.1994   52.1628 O.2     1  ZINC000550217006   -0.5300
     15 C15        -0.7149    2.6474   50.5697 C.ar    1  ZINC000550217006   -0.0800
     16 C16        -1.0785    1.9079   49.4418 C.ar    1  ZINC000550217006   -0.1000
     17 C17        -0.1128    1.2774   48.6960 C.ar    1  ZINC000550217006   -0.0500
     18 C18         1.2428    1.3671   49.0531 C.ar    1  ZINC000550217006   -0.1300
     19 C19         1.6101    2.1072   50.1765 C.ar    1  ZINC000550217006    0.1800
     20 C20         0.6235    2.7477   50.9284 C.ar    1  ZINC000550217006   -0.0900
     21 N21         2.9211    2.2586   50.5947 N.am    1  ZINC000550217006   -0.6600
     22 C22         3.8458    1.3033   50.6071 C.2     1  ZINC000550217006    0.5100
     23 O23         4.9487    1.5577   51.0426 O.2     1  ZINC000550217006   -0.5100
     24 C24         3.5643   -0.0835   50.0973 C.3     1  ZINC000550217006    0.0900
     25 N25         3.2696   -0.0101   48.6663 N.am    1  ZINC000550217006   -0.7100
     26 C26         2.2143    0.6598   48.2064 C.2     1  ZINC000550217006    0.5600
     27 O27         2.0426    0.6882   47.0034 O.2     1  ZINC000550217006   -0.5200
     28 H28        -9.4693    1.7932   52.9352 H       1  ZINC000550217006    0.0700
     29 H29       -10.3307    2.4166   54.3626 H       1  ZINC000550217006    0.0800
     30 H30        -9.6646    3.5480   53.1608 H       1  ZINC000550217006    0.0700
     31 H31        -8.2292    3.4481   55.1803 H       1  ZINC000550217006    0.0600
     32 H32        -8.0340    1.6933   54.9548 H       1  ZINC000550217006    0.0600
     33 H33        -7.9268    0.4003   53.7487 H       1  ZINC000550217006    0.1300
     34 H34        -7.3445   -1.4226   52.2003 H       1  ZINC000550217006    0.1300
     35 H35        -5.8840   -0.9803   50.2694 H       1  ZINC000550217006    0.1300
     36 H36        -5.0026    1.2851   49.8817 H       1  ZINC000550217006    0.1300
     37 H37        -5.3171    3.6731   50.2825 H       1  ZINC000550217006    0.0800
     38 H38        -6.1270    4.2427   51.7617 H       1  ZINC000550217006    0.0800
     39 H39        -3.8261    4.7085   52.1386 H       1  ZINC000550217006    0.0700
     40 H40        -4.1187    3.1970   53.0318 H       1  ZINC000550217006    0.0700
     41 H41        -3.3000    2.2846   50.6138 H       1  ZINC000550217006    0.4000
     42 H42        -2.1175    1.8317   49.1568 H       1  ZINC000550217006    0.1400
     43 H43        -0.3989    0.7061   47.8254 H       1  ZINC000550217006    0.1500
     44 H44         0.9025    3.3196   51.8011 H       1  ZINC000550217006    0.1500
     45 H45         3.1884    3.1379   50.9051 H       1  ZINC000550217006    0.4200
     46 H46         4.4372   -0.7160   50.2585 H       1  ZINC000550217006    0.1300
     47 H47         2.7067   -0.4998   50.6259 H       1  ZINC000550217006    0.1000
     48 H48         3.8563   -0.4593   48.0379 H       1  ZINC000550217006    0.4200
@<TRIPOS>BOND
     1     1     2    1
     2     1    28    1
     3     1    29    1
     4     1    30    1
     5     2     3    1
     6     2    31    1
     7     2    32    1
     8     3     4    1
     9     4     9   ar
    10     4     5   ar
    11     5     6   ar
    12     5    33    1
    13     6     7   ar
    14     6    34    1
    15     7     8   ar
    16     7    35    1
    17     8     9   ar
    18     8    36    1
    19     9    10    1
    20    10    11    1
    21    10    37    1
    22    10    38    1
    23    11    12    1
    24    11    39    1
    25    11    40    1
    26    12    13   am
    27    12    41    1
    28    13    14    2
    29    13    15    1
    30    15    20   ar
    31    15    16   ar
    32    16    17   ar
    33    16    42    1
    34    17    18   ar
    35    17    43    1
    36    18    26    1
    37    18    19   ar
    38    19    20   ar
    39    19    21    1
    40    20    44    1
    41    21    22   am
    42    21    45    1
    43    22    23    2
    44    22    24    1
    45    24    25    1
    46    24    46    1
    47    24    47    1
    48    25    26   am
    49    25    48    1
    50    26    27    2
@<TRIPOS>SUBSTRUCTURE
     1 ZINC000550217006        1 TEMP              0 ****  ****    0 ROOT


##########                                Name:    ZINC001083519372
##########                DOCK_Rotatable_Bonds:                   7
##########                         Heavy_Atoms:                  27
##########                    Molecular_Weight:             370.411
##########                DOCK_Rotatable_Bonds:                   7
##########                       Formal_Charge:           0.0399996
##########                     HBond_Acceptors:                   9
##########                        HBond_Donors:                   2
##########                         Heavy_Atoms:                  27
##########                          Grid_Score:          -34.322815
##########                     Grid_vdw_energy:          -32.013256
##########                      Grid_es_energy:           -2.309560
##########           Internal_energy_repulsive:            7.976793

@<TRIPOS>MOLECULE
ZINC001083519372
 49 52 1 0 0
SMALL
USER_CHARGES


@<TRIPOS>ATOM
      1 C1          2.1792    0.1033   60.9002 C.3     1  ZINC001083519372   -0.1500
      2 C2          0.6790    0.3924   60.9800 C.3     1  ZINC001083519372   -0.0100
      3 C3          0.1016   -0.2533   62.2412 C.3     1  ZINC001083519372   -0.1500
      4 C4          0.4564    1.8820   61.0314 C.2     1  ZINC001083519372   -0.0100
      5 C5          0.1752    2.6832   59.9905 C.2     1  ZINC001083519372   -0.0100
      6 C6          0.0242    2.2544   58.5537 C.3     1  ZINC001083519372    0.1300
      7 N7         -0.6702    3.3064   57.7992 N.3     1  ZINC001083519372   -0.5000
      8 C8         -0.6590    3.0128   56.3432 C.3     1  ZINC001083519372    0.0300
      9 C9         -1.8265    3.8737   55.7990 C.3     1  ZINC001083519372    0.1500
     10 H10        -1.5119    4.9083   55.6622 H       1  ZINC001083519372    0.1200
     11 N11        -2.3380    3.3190   54.5432 N.am    1  ZINC001083519372   -0.6900
     12 C12        -1.6975    3.5716   53.3846 C.2     1  ZINC001083519372    0.5600
     13 O13        -0.6943    4.2586   53.3817 O.2     1  ZINC001083519372   -0.5100
     14 C14        -2.2135    3.0146   52.1200 C.2     1  ZINC001083519372    0.1400
     15 C15        -1.3537    2.5751   51.1497 C.2     1  ZINC001083519372   -0.1500
     16 C16        -1.8747    2.0512   49.9591 C.2     1  ZINC001083519372    0.1800
     17 N17        -3.1712    1.9818   49.7744 N.2     1  ZINC001083519372   -0.4400
     18 C18        -4.0273    2.4058   50.7098 C.2     1  ZINC001083519372    0.2500
     19 C19        -5.4164    2.4448   50.7650 C.2     1  ZINC001083519372   -0.2500
     20 C20        -5.7732    2.9915   51.9865 C.2     1  ZINC001083519372    0.1000
     21 N21        -4.6825    3.2806   52.6623 N.2     1  ZINC001083519372   -0.3100
     22 N22        -3.5682    2.9222   51.8961 N.pl3   1  ZINC001083519372   -0.3100
     23 C23        -2.8859    3.7677   56.9200 C.3     1  ZINC001083519372    0.0900
     24 H24        -3.3829    4.7273   57.0627 H       1  ZINC001083519372    0.0800
     25 O25        -3.8441    2.7561   56.6029 O.3     1  ZINC001083519372   -0.5600
     26 C26        -2.0963    3.3815   58.1843 C.3     1  ZINC001083519372    0.0100
     27 N27         0.0525    3.9367   60.4618 N.2     1  ZINC001083519372   -0.4800
     28 C28         0.2497    3.9201   61.7492 C.2     1  ZINC001083519372    0.1700
     29 O29         0.4963    2.6598   62.1310 O.3     1  ZINC001083519372   -0.2000
     30 H30         2.5907    0.5635   60.0018 H       1  ZINC001083519372    0.0600
     31 H31         2.6758    0.5149   61.7790 H       1  ZINC001083519372    0.0600
     32 H32         2.3403   -0.9740   60.8630 H       1  ZINC001083519372    0.0700
     33 H33         0.1825   -0.0190   60.1013 H       1  ZINC001083519372    0.1000
     34 H34         0.5980    0.1581   63.1200 H       1  ZINC001083519372    0.0600
     35 H35        -0.9673   -0.0474   62.2980 H       1  ZINC001083519372    0.0600
     36 H36         0.2626   -1.3308   62.2040 H       1  ZINC001083519372    0.0700
     37 H37         1.0095    2.0859   58.1192 H       1  ZINC001083519372    0.0900
     38 H38        -0.5553    1.3323   58.5088 H       1  ZINC001083519372    0.0600
     39 H39         0.2865    3.3202   55.8962 H       1  ZINC001083519372    0.1000
     40 H40        -0.8449    1.9541   56.1628 H       1  ZINC001083519372    0.0600
     41 H41        -3.1377    2.7700   54.5456 H       1  ZINC001083519372    0.4300
     42 H42        -0.2857    2.6319   51.3000 H       1  ZINC001083519372    0.1800
     43 H43        -1.2038    1.7024   49.1878 H       1  ZINC001083519372    0.1900
     44 H44        -6.0946    2.1095   49.9943 H       1  ZINC001083519372    0.1700
     45 H45        -6.7845    3.1543   52.3289 H       1  ZINC001083519372    0.2000
     46 H46        -3.4546    1.8927   56.4081 H       1  ZINC001083519372    0.3900
     47 H47        -2.4334    2.4119   58.5510 H       1  ZINC001083519372    0.0700
     48 H48        -2.2335    4.1408   58.9542 H       1  ZINC001083519372    0.0900
     49 H49         0.2159    4.7799   62.4018 H       1  ZINC001083519372    0.2500
@<TRIPOS>BOND
     1     1     2    1
     2     1    30    1
     3     1    31    1
     4     1    32    1
     5     2     3    1
     6     2     4    1
     7     2    33    1
     8     3    34    1
     9     3    35    1
    10     3    36    1
    11     4    29    1
    12     4     5    2
    13     5     6    1
    14     5    27    1
    15     6     7    1
    16     6    37    1
    17     6    38    1
    18     7    26    1
    19     7     8    1
    20     8     9    1
    21     8    39    1
    22     8    40    1
    23     9    10    1
    24     9    11    1
    25     9    23    1
    26    11    12   am
    27    11    41    1
    28    12    13    2
    29    12    14    1
    30    14    22    1
    31    14    15    2
    32    15    16    1
    33    15    42    1
    34    16    17    2
    35    16    43    1
    36    17    18    1
    37    18    22    1
    38    18    19    2
    39    19    20    1
    40    19    44    1
    41    20    21    2
    42    20    45    1
    43    21    22    1
    44    23    24    1
    45    23    25    1
    46    23    26    1
    47    25    46    1
    48    26    47    1
    49    26    48    1
    50    27    28    2
    51    28    29    1
    52    28    49    1
@<TRIPOS>SUBSTRUCTURE
     1 ZINC001083519372        1 TEMP              0 ****  ****    0 ROOT


##########                                Name:    ZINC000859608860
##########                DOCK_Rotatable_Bonds:                   8
##########                         Heavy_Atoms:                  24
##########                    Molecular_Weight:             394.268
##########                DOCK_Rotatable_Bonds:                   8
##########                       Formal_Charge:          -0.0200003
##########                     HBond_Acceptors:                   6
##########                        HBond_Donors:                   1
##########                         Heavy_Atoms:                  24
##########                          Grid_Score:          -34.302731
##########                     Grid_vdw_energy:          -33.711399
##########                      Grid_es_energy:           -0.591331
##########           Internal_energy_repulsive:           13.531011

@<TRIPOS>MOLECULE
ZINC000859608860
 44 45 1 0 0
SMALL
USER_CHARGES


@<TRIPOS>ATOM
      1 C1         -7.8650    3.7420   54.1168 C.3     1  ZINC000859608860   -0.1400
      2 C2         -8.6818    2.4617   53.9302 C.3     1  ZINC000859608860   -0.0800
      3 C3         -9.5792    2.2469   55.1506 C.3     1  ZINC000859608860   -0.1400
      4 C4         -9.5484    2.5880   52.6757 C.3     1  ZINC000859608860   -0.1400
      5 C5         -7.7343    1.2701   53.7777 C.3     1  ZINC000859608860    0.1300
      6 N6         -6.8483    1.4941   52.6328 N.am    1  ZINC000859608860   -0.7300
      7 C7         -6.4419    0.4519   51.8811 C.2     1  ZINC000859608860    0.5100
      8 O8         -6.8085   -0.6716   52.1534 O.2     1  ZINC000859608860   -0.5100
      9 C9         -5.5319    0.6826   50.7022 C.3     1  ZINC000859608860    0.0500
     10 O10        -5.7240    2.0310   50.1989 O.3     1  ZINC000859608860   -0.3100
     11 C11        -5.0100    3.0114   50.7872 C.2     1  ZINC000859608860    0.5600
     12 O12        -5.5758    3.9870   51.2404 O.2     1  ZINC000859608860   -0.5100
     13 C13        -3.5457    2.9005   50.8806 C.2     1  ZINC000859608860   -0.0400
     14 C14        -2.7221    2.3064   49.9681 C.2     1  ZINC000859608860    0.0500
     15 N15        -1.4538    2.4295   50.4454 N.pl3   1  ZINC000859608860   -0.4100
     16 C16        -0.2864    1.9594   49.8267 C.ar    1  ZINC000859608860    0.1400
     17 C17        -0.3320    1.4916   48.5204 C.ar    1  ZINC000859608860   -0.1200
     18 C18         0.8192    1.0295   47.9131 C.ar    1  ZINC000859608860   -0.0600
     19 C19         2.0171    1.0325   48.6055 C.ar    1  ZINC000859608860   -0.1000
     20 Br20        3.5913    0.3991   47.7709 Br      1  ZINC000859608860   -0.0300
     21 C21         2.0652    1.4986   49.9073 C.ar    1  ZINC000859608860   -0.0600
     22 C22         0.9178    1.9662   50.5175 C.ar    1  ZINC000859608860   -0.1200
     23 C23        -1.5237    3.0919   51.6326 C.2     1  ZINC000859608860    0.2000
     24 N24        -2.7680    3.3760   51.8871 N.2     1  ZINC000859608860   -0.4300
     25 H25        -7.2476    3.6521   55.0106 H       1  ZINC000859608860    0.0500
     26 H26        -7.2258    3.8951   53.2474 H       1  ZINC000859608860    0.0600
     27 H27        -8.5400    4.5910   54.2254 H       1  ZINC000859608860    0.0600
     28 H28       -10.2541    3.0958   55.2592 H       1  ZINC000859608860    0.0600
     29 H29       -10.1611    1.3348   55.0176 H       1  ZINC000859608860    0.0600
     30 H30        -8.9617    2.1569   56.0444 H       1  ZINC000859608860    0.0500
     31 H31        -8.9091    2.7410   51.8063 H       1  ZINC000859608860    0.0600
     32 H32       -10.1303    1.6759   52.5428 H       1  ZINC000859608860    0.0600
     33 H33       -10.2234    3.4370   52.7843 H       1  ZINC000859608860    0.0600
     34 H34        -7.1375    1.1622   54.6834 H       1  ZINC000859608860    0.0700
     35 H35        -8.3155    0.3624   53.6153 H       1  ZINC000859608860    0.0700
     36 H36        -6.5541    2.3926   52.4157 H       1  ZINC000859608860    0.4000
     37 H37        -4.4950    0.5552   51.0132 H       1  ZINC000859608860    0.1000
     38 H38        -5.7663   -0.0354   49.9163 H       1  ZINC000859608860    0.1000
     39 H39        -3.0198    1.8302   49.0455 H       1  ZINC000859608860    0.2000
     40 H40        -1.2668    1.4887   47.9797 H       1  ZINC000859608860    0.1400
     41 H41         0.7841    0.6652   46.8970 H       1  ZINC000859608860    0.1500
     42 H42         3.0014    1.4999   50.4457 H       1  ZINC000859608860    0.1500
     43 H43         0.9558    2.3299   51.5337 H       1  ZINC000859608860    0.1500
     44 H44        -0.6818    3.3445   52.2602 H       1  ZINC000859608860    0.2200
@<TRIPOS>BOND
     1     1     2    1
     2     1    25    1
     3     1    26    1
     4     1    27    1
     5     2     3    1
     6     2     4    1
     7     2     5    1
     8     3    28    1
     9     3    29    1
    10     3    30    1
    11     4    31    1
    12     4    32    1
    13     4    33    1
    14     5     6    1
    15     5    34    1
    16     5    35    1
    17     6     7   am
    18     6    36    1
    19     7     8    2
    20     7     9    1
    21     9    10    1
    22     9    37    1
    23     9    38    1
    24    10    11    1
    25    11    12    2
    26    11    13    1
    27    13    24    1
    28    13    14    2
    29    14    15    1
    30    14    39    1
    31    15    16    1
    32    15    23    1
    33    16    22   ar
    34    16    17   ar
    35    17    18   ar
    36    17    40    1
    37    18    19   ar
    38    18    41    1
    39    19    20    1
    40    19    21   ar
    41    21    22   ar
    42    21    42    1
    43    22    43    1
    44    23    24    2
    45    23    44    1
@<TRIPOS>SUBSTRUCTURE
     1 ZINC000859608860        1 TEMP              0 ****  ****    0 ROOT


##########                                Name:    ZINC000050607728
##########                DOCK_Rotatable_Bonds:                  10
##########                         Heavy_Atoms:                  31
##########                    Molecular_Weight:             416.476
##########                DOCK_Rotatable_Bonds:                  10
##########                       Formal_Charge:          -0.0199995
##########                     HBond_Acceptors:                   6
##########                        HBond_Donors:                   1
##########                         Heavy_Atoms:                  31
##########                          Grid_Score:          -34.273766
##########                     Grid_vdw_energy:          -33.940453
##########                      Grid_es_energy:           -0.333314
##########           Internal_energy_repulsive:           12.966258

@<TRIPOS>MOLECULE
ZINC000050607728
 55 57 1 0 0
SMALL
USER_CHARGES


@<TRIPOS>ATOM
      1 C1          2.3485   -0.1370   50.0581 C.3     1  ZINC000050607728    0.0800
      2 N2          2.3723    0.4687   48.7244 N.am    1  ZINC000050607728   -0.6200
      3 C3          3.2663   -0.0646   47.6936 C.3     1  ZINC000050607728    0.0700
      4 C4          1.5719    1.5166   48.4458 C.2     1  ZINC000050607728    0.5600
      5 O5          1.5917    2.0192   47.3392 O.2     1  ZINC000050607728   -0.5300
      6 C6          0.6697    2.0548   49.4860 C.ar    1  ZINC000050607728   -0.1400
      7 C7          1.1800    2.8496   50.5135 C.ar    1  ZINC000050607728   -0.0800
      8 C8          0.3326    3.3492   51.4809 C.ar    1  ZINC000050607728   -0.1300
      9 C9         -1.0202    3.0634   51.4343 C.ar    1  ZINC000050607728   -0.0700
     10 C10        -1.5326    2.2755   50.4186 C.ar    1  ZINC000050607728   -0.1100
     11 C11        -3.0075    1.9689   50.3760 C.3     1  ZINC000050607728    0.1100
     12 O12        -3.7450    3.0502   51.0045 O.3     1  ZINC000050607728   -0.3400
     13 C13        -5.0845    2.9653   50.9867 C.2     1  ZINC000050607728    0.4700
     14 O14        -5.6226    2.0106   50.4779 O.2     1  ZINC000050607728   -0.5000
     15 C15        -5.9171    4.0607   51.6012 C.3     1  ZINC000050607728    0.2000
     16 H16        -5.3770    5.0055   51.5401 H       1  ZINC000050607728    0.1400
     17 N17        -7.1851    4.1753   50.8764 N.am    1  ZINC000050607728   -0.7100
     18 C18        -7.8091    5.3671   50.7943 C.2     1  ZINC000050607728    0.5700
     19 O19        -7.3191    6.3472   51.3203 O.2     1  ZINC000050607728   -0.5200
     20 C20        -9.0896    5.4824   50.0642 C.ar    1  ZINC000050607728   -0.1400
     21 C21        -9.7357    6.7163   49.9728 C.ar    1  ZINC000050607728   -0.0800
     22 C22       -10.9300    6.8170   49.2897 C.ar    1  ZINC000050607728   -0.1300
     23 C23       -11.4877    5.6985   48.6964 C.ar    1  ZINC000050607728   -0.0900
     24 C24       -10.8525    4.4723   48.7837 C.ar    1  ZINC000050607728   -0.1300
     25 C25        -9.6546    4.3591   49.4585 C.ar    1  ZINC000050607728   -0.0600
     26 C26        -6.1924    3.7321   53.0460 C.ar    1  ZINC000050607728   -0.1000
     27 C27        -5.3238    4.1641   54.0306 C.ar    1  ZINC000050607728   -0.1000
     28 C28        -5.5763    3.8628   55.3559 C.ar    1  ZINC000050607728   -0.1200
     29 C29        -6.6975    3.1296   55.6965 C.ar    1  ZINC000050607728   -0.1100
     30 C30        -7.5666    2.6982   54.7118 C.ar    1  ZINC000050607728   -0.1200
     31 C31        -7.3165    3.0033   53.3869 C.ar    1  ZINC000050607728   -0.0800
     32 C32        -0.6972    1.7750   49.4418 C.ar    1  ZINC000050607728   -0.0400
     33 H33         3.0810    0.3585   50.6954 H       1  ZINC000050607728    0.0600
     34 H34         1.3545   -0.0234   50.4911 H       1  ZINC000050607728    0.0800
     35 H35         2.5921   -1.1966   49.9805 H       1  ZINC000050607728    0.0700
     36 H36         2.7807   -0.8992   47.1880 H       1  ZINC000050607728    0.0600
     37 H37         3.4926    0.7174   46.9688 H       1  ZINC000050607728    0.0800
     38 H38         4.1909   -0.4088   48.1572 H       1  ZINC000050607728    0.0700
     39 H39         2.2360    3.0729   50.5513 H       1  ZINC000050607728    0.1400
     40 H40         0.7261    3.9644   52.2765 H       1  ZINC000050607728    0.1400
     41 H41        -1.6792    3.4565   52.1942 H       1  ZINC000050607728    0.1300
     42 H42        -3.3273    1.8655   49.3392 H       1  ZINC000050607728    0.0900
     43 H43        -3.2006    1.0387   50.9104 H       1  ZINC000050607728    0.0900
     44 H44        -7.5756    3.3935   50.4556 H       1  ZINC000050607728    0.4100
     45 H45        -9.3018    7.5900   50.4361 H       1  ZINC000050607728    0.1300
     46 H46       -11.4310    7.7711   49.2182 H       1  ZINC000050607728    0.1300
     47 H47       -12.4230    5.7826   48.1630 H       1  ZINC000050607728    0.1300
     48 H48       -11.2933    3.6029   48.3186 H       1  ZINC000050607728    0.1300
     49 H49        -9.1598    3.4014   49.5257 H       1  ZINC000050607728    0.1400
     50 H50        -4.4478    4.7371   53.7646 H       1  ZINC000050607728    0.1200
     51 H51        -4.8973    4.1998   56.1252 H       1  ZINC000050607728    0.1200
     52 H52        -6.8944    2.8935   56.7318 H       1  ZINC000050607728    0.1200
     53 H53        -8.4426    2.1251   54.9779 H       1  ZINC000050607728    0.1300
     54 H54        -7.9954    2.6663   52.6177 H       1  ZINC000050607728    0.1300
     55 H55        -1.0984    1.1605   48.6493 H       1  ZINC000050607728    0.1300
@<TRIPOS>BOND
     1     1     2    1
     2     1    33    1
     3     1    34    1
     4     1    35    1
     5     2     3    1
     6     2     4   am
     7     3    36    1
     8     3    37    1
     9     3    38    1
    10     4     5    2
    11     4     6    1
    12     6    32   ar
    13     6     7   ar
    14     7     8   ar
    15     7    39    1
    16     8     9   ar
    17     8    40    1
    18     9    10   ar
    19     9    41    1
    20    10    11    1
    21    10    32   ar
    22    11    12    1
    23    11    42    1
    24    11    43    1
    25    12    13    1
    26    13    14    2
    27    13    15    1
    28    15    16    1
    29    15    17    1
    30    15    26    1
    31    17    18   am
    32    17    44    1
    33    18    19    2
    34    18    20    1
    35    20    25   ar
    36    20    21   ar
    37    21    22   ar
    38    21    45    1
    39    22    23   ar
    40    22    46    1
    41    23    24   ar
    42    23    47    1
    43    24    25   ar
    44    24    48    1
    45    25    49    1
    46    26    31   ar
    47    26    27   ar
    48    27    28   ar
    49    27    50    1
    50    28    29   ar
    51    28    51    1
    52    29    30   ar
    53    29    52    1
    54    30    31   ar
    55    30    53    1
    56    31    54    1
    57    32    55    1
@<TRIPOS>SUBSTRUCTURE
     1 ZINC000050607728        1 TEMP              0 ****  ****    0 ROOT


##########                                Name:    ZINC000621594459
##########                DOCK_Rotatable_Bonds:                  10
##########                         Heavy_Atoms:                  25
##########                    Molecular_Weight:             389.497
##########                DOCK_Rotatable_Bonds:                  10
##########                       Formal_Charge:         -7.7486e-07
##########                     HBond_Acceptors:                  10
##########                        HBond_Donors:                   3
##########                         Heavy_Atoms:                  25
##########                          Grid_Score:          -34.237938
##########                     Grid_vdw_energy:          -32.669514
##########                      Grid_es_energy:           -1.568425
##########           Internal_energy_repulsive:            9.787893

@<TRIPOS>MOLECULE
ZINC000621594459
 48 49 1 0 0
SMALL
USER_CHARGES


@<TRIPOS>ATOM
      1 C1          2.7757    4.3481   53.0712 C.3     1  ZINC000621594459   -0.1600
      2 C2          3.1971    2.9220   53.4318 C.3     1  ZINC000621594459    0.1300
      3 C3          2.5618    2.5243   54.7656 C.3     1  ZINC000621594459   -0.1800
      4 N4          2.7500    2.0010   52.3840 N.am    1  ZINC000621594459   -1.1100
      5 S5          3.7365    1.6707   51.0956 S.o2    1  ZINC000621594459    2.6200
      6 O6          3.8721    2.9183   50.4291 O.2     1  ZINC000621594459   -0.9500
      7 O7          4.8616    1.0225   51.6730 O.2     1  ZINC000621594459   -0.9400
      8 C8          2.7828    0.5075   50.0818 C.3     1  ZINC000621594459   -0.6600
      9 C9          1.6704    1.2617   49.3505 C.3     1  ZINC000621594459    0.1300
     10 N10         0.6354    1.6557   50.3094 N.am    1  ZINC000621594459   -0.7200
     11 C11        -0.6149    1.9197   49.8810 C.2     1  ZINC000621594459    0.5600
     12 O12        -0.8841    1.8295   48.6991 O.2     1  ZINC000621594459   -0.5200
     13 C13        -1.6590    2.3190   50.8486 C.ar    1  ZINC000621594459   -0.1500
     14 C14        -1.3378    3.1495   51.9233 C.ar    1  ZINC000621594459   -0.0300
     15 C15        -2.3170    3.5189   52.8224 C.ar    1  ZINC000621594459   -0.1400
     16 C16        -3.6147    3.0675   52.6607 C.ar    1  ZINC000621594459    0.0100
     17 C17        -3.9397    2.2434   51.5976 C.ar    1  ZINC000621594459   -0.6800
     18 S18        -5.5954    1.6736   51.4012 S.o2    1  ZINC000621594459    2.7000
     19 O19        -5.5253    0.5082   50.5910 O.2     1  ZINC000621594459   -0.9400
     20 O20        -6.1802    1.6858   52.6963 O.2     1  ZINC000621594459   -0.9500
     21 N21        -6.4038    2.8132   50.5123 N.am    1  ZINC000621594459   -1.0900
     22 C22        -6.5212    4.1849   51.0130 C.3     1  ZINC000621594459    0.0800
     23 C23        -6.8857    5.2763   50.0046 C.3     1  ZINC000621594459   -0.1800
     24 C24        -7.9167    4.8118   51.0352 C.3     1  ZINC000621594459   -0.1900
     25 C25        -2.9715    1.8717   50.6881 C.ar    1  ZINC000621594459    0.0400
     26 H26         3.1084    5.0333   53.8508 H       1  ZINC000621594459    0.0700
     27 H27         3.2283    4.6313   52.1210 H       1  ZINC000621594459    0.0700
     28 H28         1.6902    4.3953   52.9850 H       1  ZINC000621594459    0.0600
     29 H29         4.2827    2.8748   53.5180 H       1  ZINC000621594459    0.0900
     30 H30         1.4763    2.5716   54.6794 H       1  ZINC000621594459    0.0700
     31 H31         2.8619    1.5084   55.0224 H       1  ZINC000621594459    0.0600
     32 H32         2.8945    3.2096   55.5452 H       1  ZINC000621594459    0.0700
     33 H33         1.8759    1.5847   52.4449 H       1  ZINC000621594459    0.4200
     34 H34         3.4418    0.0358   49.3530 H       1  ZINC000621594459    0.1400
     35 H35         2.3431   -0.2569   50.7224 H       1  ZINC000621594459    0.1400
     36 H36         2.0852    2.1518   48.8774 H       1  ZINC000621594459    0.0900
     37 H37         1.2333    0.6157   48.5890 H       1  ZINC000621594459    0.0900
     38 H38         0.8499    1.7265   51.2528 H       1  ZINC000621594459    0.4000
     39 H39        -0.3250    3.5021   52.0510 H       1  ZINC000621594459    0.1300
     40 H40        -2.0699    4.1615   53.6545 H       1  ZINC000621594459    0.1400
     41 H41        -4.3774    3.3592   53.3675 H       1  ZINC000621594459    0.1500
     42 H42        -6.7996    2.5724   49.6600 H       1  ZINC000621594459    0.4200
     43 H43        -5.8368    4.4516   51.8184 H       1  ZINC000621594459    0.1400
     44 H44        -6.4409    6.2613   50.1462 H       1  ZINC000621594459    0.1100
     45 H45        -7.0381    4.9737   48.9686 H       1  ZINC000621594459    0.1000
     46 H46        -8.7474    4.2036   50.6771 H       1  ZINC000621594459    0.1000
     47 H47        -8.1503    5.4912   51.8549 H       1  ZINC000621594459    0.1000
     48 H48        -3.2265    1.2289   49.8586 H       1  ZINC000621594459    0.1600
@<TRIPOS>BOND
     1     1     2    1
     2     1    26    1
     3     1    27    1
     4     1    28    1
     5     2     3    1
     6     2     4    1
     7     2    29    1
     8     3    30    1
     9     3    31    1
    10     3    32    1
    11     4     5   am
    12     4    33    1
    13     5     6    2
    14     5     7    2
    15     5     8    1
    16     8     9    1
    17     8    34    1
    18     8    35    1
    19     9    10    1
    20     9    36    1
    21     9    37    1
    22    10    11   am
    23    10    38    1
    24    11    12    2
    25    11    13    1
    26    13    25   ar
    27    13    14   ar
    28    14    15   ar
    29    14    39    1
    30    15    16   ar
    31    15    40    1
    32    16    17   ar
    33    16    41    1
    34    17    18    1
    35    17    25   ar
    36    18    19    2
    37    18    20    2
    38    18    21   am
    39    21    22    1
    40    21    42    1
    41    22    24    1
    42    22    23    1
    43    22    43    1
    44    23    24    1
    45    23    44    1
    46    23    45    1
    47    24    46    1
    48    24    47    1
    49    25    48    1
@<TRIPOS>SUBSTRUCTURE
     1 ZINC000621594459        1 TEMP              0 ****  ****    0 ROOT


##########                                Name:    ZINC000428748914
##########                DOCK_Rotatable_Bonds:                  11
##########                         Heavy_Atoms:                  30
##########                    Molecular_Weight:             413.492
##########                DOCK_Rotatable_Bonds:                  11
##########                       Formal_Charge:           0.0199993
##########                     HBond_Acceptors:                   7
##########                        HBond_Donors:                   3
##########                         Heavy_Atoms:                  30
##########                          Grid_Score:          -34.219437
##########                     Grid_vdw_energy:          -32.506535
##########                      Grid_es_energy:           -1.712902
##########           Internal_energy_repulsive:           23.478901

@<TRIPOS>MOLECULE
ZINC000428748914
 58 61 1 0 0
SMALL
USER_CHARGES


@<TRIPOS>ATOM
      1 O1         -9.8736    1.8506   53.2000 O.2     1  ZINC000428748914   -0.5900
      2 C2         -8.9420    1.0737   53.1163 C.2     1  ZINC000428748914    0.7000
      3 N3         -9.0470   -0.1635   53.6405 N.am    1  ZINC000428748914   -0.7400
      4 C4        -10.2816   -0.5703   54.3163 C.3     1  ZINC000428748914    0.1900
      5 C5        -10.0553   -0.5914   55.8061 C.ar    1  ZINC000428748914   -0.2000
      6 C6         -9.3880    0.4540   56.4290 C.ar    1  ZINC000428748914   -0.0200
      7 C7         -9.2015    0.3948   57.7992 C.ar    1  ZINC000428748914   -0.1900
      8 C8         -9.6855   -0.7020   58.5004 C.ar    1  ZINC000428748914    0.3300
      9 O9         -9.5094   -0.7717   59.8439 O.3     1  ZINC000428748914   -0.3000
     10 C10        -9.0304    0.4055   60.4973 C.3     1  ZINC000428748914    0.0800
     11 C11       -10.1190    1.5073   60.4961 C.3     1  ZINC000428748914   -0.1400
     12 C12        -9.7073    2.3957   61.6963 C.3     1  ZINC000428748914   -0.1200
     13 C13        -9.2060    1.3923   62.7554 C.3     1  ZINC000428748914   -0.1200
     14 C14        -8.7756    0.1269   61.9930 C.3     1  ZINC000428748914   -0.1200
     15 N15       -10.3169   -1.6792   57.8709 N.ar    1  ZINC000428748914   -0.5400
     16 C16       -10.5149   -1.6483   56.5668 C.ar    1  ZINC000428748914    0.1600
     17 N17        -7.8063    1.4480   52.4947 N.am    1  ZINC000428748914   -0.7400
     18 C18        -7.6920    2.7928   51.9248 C.3     1  ZINC000428748914    0.1800
     19 C19        -6.2789    2.9951   51.3743 C.3     1  ZINC000428748914   -0.1300
     20 C20        -5.8970    4.4411   51.0518 C.3     1  ZINC000428748914    0.1100
     21 O21        -6.8364    4.9861   50.1231 O.3     1  ZINC000428748914   -0.5700
     22 C22        -5.7063    1.8959   50.4773 C.3     1  ZINC000428748914   -0.1400
     23 C23        -5.1768    2.0742   51.9017 C.3     1  ZINC000428748914   -0.1000
     24 H24        -5.4585    1.3242   52.6408 H       1  ZINC000428748914    0.1200
     25 C25        -3.7978    2.6602   52.0632 C.ar    1  ZINC000428748914   -0.0700
     26 C26        -2.8174    2.3870   51.1277 C.ar    1  ZINC000428748914   -0.0900
     27 C27        -1.5524    2.9237   51.2747 C.ar    1  ZINC000428748914   -0.1500
     28 C28        -1.2675    3.7359   52.3593 C.ar    1  ZINC000428748914    0.1000
     29 F29        -0.0313    4.2616   52.5038 F       1  ZINC000428748914   -0.1400
     30 C30        -2.2504    4.0092   53.2954 C.ar    1  ZINC000428748914   -0.1500
     31 C31        -3.5159    3.4751   53.1437 C.ar    1  ZINC000428748914   -0.0800
     32 H32        -8.3053   -0.7846   53.5704 H       1  ZINC000428748914    0.4000
     33 H33       -11.0758    0.1378   54.0794 H       1  ZINC000428748914    0.0800
     34 H34       -10.5698   -1.5657   53.9784 H       1  ZINC000428748914    0.0800
     35 H35        -9.0222    1.2943   55.8576 H       1  ZINC000428748914    0.1400
     36 H36        -8.6860    1.1907   58.3163 H       1  ZINC000428748914    0.1400
     37 H37        -8.1207    0.7646   60.0158 H       1  ZINC000428748914    0.1000
     38 H38       -10.0916    2.0763   59.5669 H       1  ZINC000428748914    0.0700
     39 H39       -11.1066    1.0748   60.6565 H       1  ZINC000428748914    0.0800
     40 H40        -8.9078    3.0785   61.4089 H       1  ZINC000428748914    0.0700
     41 H41       -10.5668    2.9503   62.0729 H       1  ZINC000428748914    0.0700
     42 H42        -8.3559    1.8112   63.2937 H       1  ZINC000428748914    0.0700
     43 H43       -10.0090    1.1532   63.4527 H       1  ZINC000428748914    0.0700
     44 H44        -9.3696   -0.7264   62.3204 H       1  ZINC000428748914    0.0800
     45 H45        -7.7165   -0.0683   62.1614 H       1  ZINC000428748914    0.0700
     46 H46       -11.0350   -2.4641   56.0870 H       1  ZINC000428748914    0.1600
     47 H47        -7.0645    0.8269   52.4244 H       1  ZINC000428748914    0.3900
     48 H48        -8.4162    2.9085   51.1185 H       1  ZINC000428748914    0.0700
     49 H49        -7.8896    3.5336   52.6996 H       1  ZINC000428748914    0.0900
     50 H50        -5.9066    5.0323   51.9676 H       1  ZINC000428748914    0.0500
     51 H51        -4.8987    4.4645   50.6149 H       1  ZINC000428748914    0.0600
     52 H52        -6.9024    4.4918   49.2946 H       1  ZINC000428748914    0.3800
     53 H53        -6.3362    1.0286   50.2794 H       1  ZINC000428748914    0.1100
     54 H54        -5.0573    2.2027   49.6570 H       1  ZINC000428748914    0.1100
     55 H55        -3.0399    1.7534   50.2818 H       1  ZINC000428748914    0.1400
     56 H56        -0.7865    2.7096   50.5442 H       1  ZINC000428748914    0.1400
     57 H57        -2.0291    4.6423   54.1419 H       1  ZINC000428748914    0.1400
     58 H58        -4.2828    3.6885   53.8735 H       1  ZINC000428748914    0.1300
@<TRIPOS>BOND
     1     1     2    2
     2     2     3   am
     3     2    17   am
     4     3     4    1
     5     3    32    1
     6     4     5    1
     7     4    33    1
     8     4    34    1
     9     5    16   ar
    10     5     6   ar
    11     6     7   ar
    12     6    35    1
    13     7     8   ar
    14     7    36    1
    15     8     9    1
    16     8    15   ar
    17     9    10    1
    18    10    14    1
    19    10    11    1
    20    10    37    1
    21    11    12    1
    22    11    38    1
    23    11    39    1
    24    12    13    1
    25    12    40    1
    26    12    41    1
    27    13    14    1
    28    13    42    1
    29    13    43    1
    30    14    44    1
    31    14    45    1
    32    15    16   ar
    33    16    46    1
    34    17    18    1
    35    17    47    1
    36    18    19    1
    37    18    48    1
    38    18    49    1
    39    19    23    1
    40    19    20    1
    41    19    22    1
    42    20    21    1
    43    20    50    1
    44    20    51    1
    45    21    52    1
    46    22    23    1
    47    22    53    1
    48    22    54    1
    49    23    24    1
    50    23    25    1
    51    25    31   ar
    52    25    26   ar
    53    26    27   ar
    54    26    55    1
    55    27    28   ar
    56    27    56    1
    57    28    29    1
    58    28    30   ar
    59    30    31   ar
    60    30    57    1
    61    31    58    1
@<TRIPOS>SUBSTRUCTURE
     1 ZINC000428748914        1 TEMP              0 ****  ****    0 ROOT


##########                                Name:    ZINC000482540246
##########                DOCK_Rotatable_Bonds:                  10
##########                         Heavy_Atoms:                  30
##########                    Molecular_Weight:              409.46
##########                DOCK_Rotatable_Bonds:                  10
##########                       Formal_Charge:         2.83122e-07
##########                     HBond_Acceptors:                   7
##########                        HBond_Donors:                   2
##########                         Heavy_Atoms:                  30
##########                          Grid_Score:          -34.040596
##########                     Grid_vdw_energy:          -31.068329
##########                      Grid_es_energy:           -2.972265
##########           Internal_energy_repulsive:           14.889977

@<TRIPOS>MOLECULE
ZINC000482540246
 54 56 1 0 0
SMALL
USER_CHARGES


@<TRIPOS>ATOM
      1 C1        -11.3525   -2.0416   56.9519 C.3     1  ZINC000482540246    0.0400
      2 O2        -10.7130   -0.8416   56.5122 O.3     1  ZINC000482540246   -0.3100
      3 C3         -9.7823   -0.3013   57.3384 C.ar    1  ZINC000482540246    0.3300
      4 C4         -9.1465    0.8799   56.9792 C.ar    1  ZINC000482540246   -0.1800
      5 C5         -8.1988    1.4207   57.8309 C.ar    1  ZINC000482540246   -0.0100
      6 C6         -7.4867    2.7012   57.4780 C.3     1  ZINC000482540246    0.2000
      7 H7         -7.2339    3.2399   58.3911 H       1  ZINC000482540246    0.1000
      8 C8         -8.3993    3.5696   56.6095 C.3     1  ZINC000482540246   -0.1600
      9 N9         -6.2606    2.3902   56.7389 N.am    1  ZINC000482540246   -0.7400
     10 C10        -5.2376    3.2676   56.7312 C.2     1  ZINC000482540246    0.7100
     11 O11        -5.3329    4.3180   57.3363 O.2     1  ZINC000482540246   -0.5800
     12 N12        -4.1089    2.9809   56.0527 N.am    1  ZINC000482540246   -0.7400
     13 C13        -2.9963    3.9339   56.0457 C.3     1  ZINC000482540246    0.2100
     14 H14        -3.3888    4.9507   56.0373 H       1  ZINC000482540246    0.1200
     15 C15        -2.1389    3.7077   54.7989 C.3     1  ZINC000482540246    0.0500
     16 O16        -2.7112    4.4095   53.6934 O.3     1  ZINC000482540246   -0.3000
     17 C17        -3.2003    3.6579   52.6716 C.ar    1  ZINC000482540246    0.1000
     18 C18        -2.3314    2.9839   51.8276 C.ar    1  ZINC000482540246   -0.1800
     19 C19        -2.8308    2.2198   50.7897 C.ar    1  ZINC000482540246   -0.0900
     20 C20        -4.1956    2.1265   50.5919 C.ar    1  ZINC000482540246   -0.1300
     21 C21        -5.0661    2.7977   51.4314 C.ar    1  ZINC000482540246   -0.1200
     22 C22        -4.5722    3.5590   52.4749 C.ar    1  ZINC000482540246    0.0700
     23 F23        -5.4222    4.2147   53.2952 F       1  ZINC000482540246   -0.1300
     24 C24        -2.1534    3.7310   57.2784 C.ar    1  ZINC000482540246   -0.1000
     25 C25        -1.7738    2.4559   57.6540 C.ar    1  ZINC000482540246   -0.0800
     26 C26        -1.0007    2.2699   58.7848 C.ar    1  ZINC000482540246   -0.1200
     27 C27        -0.6068    3.3589   59.5397 C.ar    1  ZINC000482540246   -0.1200
     28 C28        -0.9856    4.6339   59.1636 C.ar    1  ZINC000482540246   -0.1200
     29 C29        -1.7552    4.8204   58.0304 C.ar    1  ZINC000482540246   -0.1000
     30 C30        -7.9197    0.7572   59.0173 C.ar    1  ZINC000482540246   -0.2100
     31 C31        -8.5906   -0.4137   59.3105 C.ar    1  ZINC000482540246    0.1500
     32 N32        -9.4929   -0.9019   58.4810 N.ar    1  ZINC000482540246   -0.5400
     33 H33       -12.0720   -2.3663   56.2002 H       1  ZINC000482540246    0.1000
     34 H34       -10.6034   -2.8199   57.0980 H       1  ZINC000482540246    0.0600
     35 H35       -11.8697   -1.8539   57.8929 H       1  ZINC000482540246    0.0600
     36 H36        -9.3880    1.3699   56.0475 H       1  ZINC000482540246    0.1500
     37 H37        -8.6521    3.0308   55.6964 H       1  ZINC000482540246    0.0600
     38 H38        -9.3115    3.8009   57.1594 H       1  ZINC000482540246    0.0700
     39 H39        -7.8842    4.4956   56.3543 H       1  ZINC000482540246    0.0700
     40 H40        -6.1850    1.5529   56.2552 H       1  ZINC000482540246    0.4000
     41 H41        -4.0333    2.1435   55.5690 H       1  ZINC000482540246    0.4000
     42 H42        -1.1295    4.0769   54.9803 H       1  ZINC000482540246    0.0800
     43 H43        -2.1009    2.6422   54.5724 H       1  ZINC000482540246    0.0800
     44 H44        -1.2648    3.0561   51.9807 H       1  ZINC000482540246    0.1400
     45 H45        -2.1536    1.6951   50.1320 H       1  ZINC000482540246    0.1300
     46 H46        -4.5829    1.5288   49.7801 H       1  ZINC000482540246    0.1400
     47 H47        -6.1320    2.7236   51.2745 H       1  ZINC000482540246    0.1400
     48 H48        -2.0816    1.6052   57.0642 H       1  ZINC000482540246    0.1200
     49 H49        -0.7047    1.2736   59.0786 H       1  ZINC000482540246    0.1200
     50 H50        -0.0033    3.2134   60.4234 H       1  ZINC000482540246    0.1200
     51 H51        -0.6782    5.4847   59.7535 H       1  ZINC000482540246    0.1200
     52 H52        -2.0512    5.8166   57.7365 H       1  ZINC000482540246    0.1200
     53 H53        -7.1855    1.1521   59.7039 H       1  ZINC000482540246    0.1400
     54 H54        -8.3772   -0.9340   60.2325 H       1  ZINC000482540246    0.1600
@<TRIPOS>BOND
     1     1     2    1
     2     1    33    1
     3     1    34    1
     4     1    35    1
     5     2     3    1
     6     3    32   ar
     7     3     4   ar
     8     4     5   ar
     9     4    36    1
    10     5     6    1
    11     5    30   ar
    12     6     7    1
    13     6     8    1
    14     6     9    1
    15     8    37    1
    16     8    38    1
    17     8    39    1
    18     9    10   am
    19     9    40    1
    20    10    11    2
    21    10    12   am
    22    12    13    1
    23    12    41    1
    24    13    14    1
    25    13    15    1
    26    13    24    1
    27    15    16    1
    28    15    42    1
    29    15    43    1
    30    16    17    1
    31    17    22   ar
    32    17    18   ar
    33    18    19   ar
    34    18    44    1
    35    19    20   ar
    36    19    45    1
    37    20    21   ar
    38    20    46    1
    39    21    22   ar
    40    21    47    1
    41    22    23    1
    42    24    29   ar
    43    24    25   ar
    44    25    26   ar
    45    25    48    1
    46    26    27   ar
    47    26    49    1
    48    27    28   ar
    49    27    50    1
    50    28    29   ar
    51    28    51    1
    52    29    52    1
    53    30    31   ar
    54    30    53    1
    55    31    32   ar
    56    31    54    1
@<TRIPOS>SUBSTRUCTURE
     1 ZINC000482540246        1 TEMP              0 ****  ****    0 ROOT


##########                                Name:    ZINC000051488227
##########                DOCK_Rotatable_Bonds:                   8
##########                         Heavy_Atoms:                  30
##########                    Molecular_Weight:             403.478
##########                DOCK_Rotatable_Bonds:                   8
##########                       Formal_Charge:           0.0199996
##########                     HBond_Acceptors:                   5
##########                        HBond_Donors:                   0
##########                         Heavy_Atoms:                  30
##########                          Grid_Score:          -34.035385
##########                     Grid_vdw_energy:          -34.485088
##########                      Grid_es_energy:            0.449703
##########           Internal_energy_repulsive:           22.148695

@<TRIPOS>MOLECULE
ZINC000051488227
 55 58 1 0 0
SMALL
USER_CHARGES


@<TRIPOS>ATOM
      1 O1         -9.7472    2.8706   55.2111 O.2     1  ZINC000051488227   -0.5000
      2 C2         -9.3718    1.7917   54.8172 C.2     1  ZINC000051488227    0.4800
      3 O3         -8.2830    1.7037   54.0371 O.3     1  ZINC000051488227   -0.3400
      4 C4         -7.5691    2.9374   53.7601 C.3     1  ZINC000051488227    0.1100
      5 C5         -6.3581    2.6380   52.9146 C.ar    1  ZINC000051488227   -0.1400
      6 C6         -5.2068    3.3881   53.0678 C.ar    1  ZINC000051488227   -0.0500
      7 C7         -4.0954    3.1157   52.2939 C.ar    1  ZINC000051488227   -0.1500
      8 C8         -4.1350    2.0880   51.3628 C.ar    1  ZINC000051488227    0.1500
      9 O9         -3.0427    1.8177   50.6006 O.3     1  ZINC000051488227   -0.3100
     10 C10        -1.8435    2.5307   50.9097 C.3     1  ZINC000051488227    0.1100
     11 C11        -0.7315    2.0573   50.0092 C.ar    1  ZINC000051488227    0.1200
     12 C12         0.5745    2.0962   50.4588 C.ar    1  ZINC000051488227   -0.1500
     13 C13         1.5902    1.6579   49.6226 C.ar    1  ZINC000051488227   -0.0700
     14 C14         1.2522    1.1952   48.3603 C.ar    1  ZINC000051488227   -0.1700
     15 C15        -0.0767    1.1861   47.9798 C.ar    1  ZINC000051488227    0.1100
     16 N16        -1.0169    1.6059   48.8035 N.ar    1  ZINC000051488227   -0.4800
     17 C17        -5.2912    1.3365   51.2114 C.ar    1  ZINC000051488227   -0.2100
     18 C18        -6.3983    1.6098   51.9910 C.ar    1  ZINC000051488227   -0.0500
     19 C19       -10.1224    0.5444   55.2069 C.3     1  ZINC000051488227    0.0000
     20 C20        -9.6126    0.0432   56.5336 C.ar    1  ZINC000051488227   -0.0900
     21 C21       -10.1531   -1.0985   57.0950 C.ar    1  ZINC000051488227   -0.1100
     22 C22        -9.6855   -1.5583   58.3119 C.ar    1  ZINC000051488227   -0.1200
     23 C23        -8.6771   -0.8766   58.9672 C.ar    1  ZINC000051488227   -0.1100
     24 C24        -8.1360    0.2646   58.4053 C.ar    1  ZINC000051488227   -0.1200
     25 C25        -8.6006    0.7220   57.1863 C.ar    1  ZINC000051488227   -0.1000
     26 C26       -11.6174    0.8591   55.3162 C.3     1  ZINC000051488227   -0.1400
     27 C27       -12.1414    1.2929   53.9447 C.3     1  ZINC000051488227    0.0600
     28 O28       -11.8898    0.2586   52.9913 O.3     1  ZINC000051488227   -0.3800
     29 C29       -10.5050   -0.0456   52.8122 C.3     1  ZINC000051488227    0.0500
     30 C30        -9.9155   -0.5332   54.1383 C.3     1  ZINC000051488227   -0.1400
     31 H31        -8.2248    3.6244   53.2253 H       1  ZINC000051488227    0.0800
     32 H32        -7.2533    3.3930   54.6987 H       1  ZINC000051488227    0.0800
     33 H33        -5.1766    4.1881   53.7928 H       1  ZINC000051488227    0.1300
     34 H34        -3.1966    3.7024   52.4135 H       1  ZINC000051488227    0.1400
     35 H35        -2.0055    3.5977   50.7569 H       1  ZINC000051488227    0.0900
     36 H36        -1.5710    2.3497   51.9494 H       1  ZINC000051488227    0.0900
     37 H37         0.8014    2.4635   51.4487 H       1  ZINC000051488227    0.1400
     38 H38         2.6202    1.6769   49.9470 H       1  ZINC000051488227    0.1400
     39 H39         2.0174    0.8466   47.6826 H       1  ZINC000051488227    0.1400
     40 H40        -0.3483    0.8275   46.9979 H       1  ZINC000051488227    0.1600
     41 H41        -5.3246    0.5362   50.4870 H       1  ZINC000051488227    0.1300
     42 H42        -7.2986    1.0248   51.8738 H       1  ZINC000051488227    0.1300
     43 H43       -10.9410   -1.6310   56.5831 H       1  ZINC000051488227    0.1300
     44 H44       -10.1083   -2.4498   58.7510 H       1  ZINC000051488227    0.1300
     45 H45        -8.3123   -1.2355   59.9183 H       1  ZINC000051488227    0.1200
     46 H46        -7.3483    0.7973   58.9173 H       1  ZINC000051488227    0.1200
     47 H47        -8.1778    1.6135   56.7474 H       1  ZINC000051488227    0.1300
     48 H48       -12.1539   -0.0305   55.6463 H       1  ZINC000051488227    0.0900
     49 H49       -11.7687    1.6644   56.0352 H       1  ZINC000051488227    0.0900
     50 H50       -13.2138    1.4770   54.0067 H       1  ZINC000051488227    0.1000
     51 H51       -11.6331    2.2056   53.6335 H       1  ZINC000051488227    0.0500
     52 H52       -10.3988   -0.8258   52.0584 H       1  ZINC000051488227    0.1000
     53 H53        -9.9754    0.8494   52.4862 H       1  ZINC000051488227    0.0700
     54 H54        -8.8494   -0.7238   54.0148 H       1  ZINC000051488227    0.0900
     55 H55       -10.4175   -1.4510   54.4445 H       1  ZINC000051488227    0.0900
@<TRIPOS>BOND
     1     1     2    2
     2     2     3    1
     3     2    19    1
     4     3     4    1
     5     4     5    1
     6     4    31    1
     7     4    32    1
     8     5    18   ar
     9     5     6   ar
    10     6     7   ar
    11     6    33    1
    12     7     8   ar
    13     7    34    1
    14     8     9    1
    15     8    17   ar
    16     9    10    1
    17    10    11    1
    18    10    35    1
    19    10    36    1
    20    11    16   ar
    21    11    12   ar
    22    12    13   ar
    23    12    37    1
    24    13    14   ar
    25    13    38    1
    26    14    15   ar
    27    14    39    1
    28    15    16   ar
    29    15    40    1
    30    17    18   ar
    31    17    41    1
    32    18    42    1
    33    19    30    1
    34    19    20    1
    35    19    26    1
    36    20    25   ar
    37    20    21   ar
    38    21    22   ar
    39    21    43    1
    40    22    23   ar
    41    22    44    1
    42    23    24   ar
    43    23    45    1
    44    24    25   ar
    45    24    46    1
    46    25    47    1
    47    26    27    1
    48    26    48    1
    49    26    49    1
    50    27    28    1
    51    27    50    1
    52    27    51    1
    53    28    29    1
    54    29    30    1
    55    29    52    1
    56    29    53    1
    57    30    54    1
    58    30    55    1
@<TRIPOS>SUBSTRUCTURE
     1 ZINC000051488227        1 TEMP              0 ****  ****    0 ROOT


##########                                Name:    ZINC001369071670
##########                DOCK_Rotatable_Bonds:                   8
##########                         Heavy_Atoms:                  24
##########                    Molecular_Weight:             335.366
##########                DOCK_Rotatable_Bonds:                   8
##########                       Formal_Charge:        -2.90573e-07
##########                     HBond_Acceptors:                  10
##########                        HBond_Donors:                   1
##########                         Heavy_Atoms:                  24
##########                          Grid_Score:          -34.035133
##########                     Grid_vdw_energy:          -33.540466
##########                      Grid_es_energy:           -0.494668
##########           Internal_energy_repulsive:           10.249362

@<TRIPOS>MOLECULE
ZINC001369071670
 45 47 1 0 0
SMALL
USER_CHARGES


@<TRIPOS>ATOM
      1 C1        -10.1287   -1.4732   58.7144 C.3     1  ZINC001369071670   -0.0800
      2 C2         -9.2442   -0.3873   58.1580 C.2     1  ZINC001369071670    0.0000
      3 C3         -8.0803    0.0569   58.6852 C.2     1  ZINC001369071670   -0.2300
      4 C4         -7.6609    1.0701   57.7842 C.2     1  ZINC001369071670    0.2100
      5 O5         -6.5373    1.8259   57.8742 O.3     1  ZINC001369071670   -0.2600
      6 C6         -6.2820    2.7386   56.8047 C.3     1  ZINC001369071670    0.0400
      7 C7         -5.0104    3.4973   57.0845 C.2     1  ZINC001369071670    0.5200
      8 O8         -5.0546    4.5625   57.6630 O.2     1  ZINC001369071670   -0.5100
      9 N9         -3.8241    2.9923   56.6922 N.am    1  ZINC001369071670   -0.7200
     10 C10        -2.5877    3.7291   56.9658 C.3     1  ZINC001369071670    0.1500
     11 H11        -2.7969    4.5462   57.6562 H       1  ZINC001369071670    0.0900
     12 C12        -1.5587    2.7846   57.5902 C.3     1  ZINC001369071670   -0.1700
     13 C13        -2.0319    4.2963   55.6580 C.3     1  ZINC001369071670   -0.1200
     14 C14        -1.9266    3.2571   54.5272 C.3     1  ZINC001369071670    0.0100
     15 N15        -2.4455    4.3191   53.6371 N.3     1  ZINC001369071670   -0.4800
     16 C16        -3.4498    3.7834   52.7084 C.3     1  ZINC001369071670    0.1000
     17 C17        -2.7567    3.0770   51.5719 C.2     1  ZINC001369071670    0.1900
     18 N18        -1.4981    3.1978   51.2267 N.2     1  ZINC001369071670   -0.3000
     19 N19        -1.2891    2.4342   50.2103 N.2     1  ZINC001369071670   -0.0700
     20 N20        -2.3818    1.8294   49.8981 N.2     1  ZINC001369071670   -0.0900
     21 N21        -3.3086    2.1953   50.7177 N.pl3   1  ZINC001369071670   -0.3000
     22 C22        -4.7021    1.7434   50.7136 C.3     1  ZINC001369071670    0.0800
     23 C23        -3.0911    4.9932   54.7851 C.3     1  ZINC001369071670    0.0200
     24 N24        -8.5725    1.1291   56.8507 N.2     1  ZINC001369071670   -0.4100
     25 O25        -9.4540    0.3234   57.0406 O.3     1  ZINC001369071670    0.1000
     26 H26       -10.9926   -1.6073   58.0634 H       1  ZINC001369071670    0.0900
     27 H27        -9.5676   -2.4059   58.7703 H       1  ZINC001369071670    0.1000
     28 H28       -10.4658   -1.1916   59.7120 H       1  ZINC001369071670    0.1000
     29 H29        -7.5851   -0.2810   59.5835 H       1  ZINC001369071670    0.1800
     30 H30        -6.1768    2.1848   55.8716 H       1  ZINC001369071670    0.1000
     31 H31        -7.1122    3.4398   56.7194 H       1  ZINC001369071670    0.1000
     32 H32        -3.7888    2.1410   56.2285 H       1  ZINC001369071670    0.4000
     33 H33        -1.9547    2.3806   58.5218 H       1  ZINC001369071670    0.0600
     34 H34        -1.3495    1.9675   56.8997 H       1  ZINC001369071670    0.0600
     35 H35        -0.6388    3.3327   57.7937 H       1  ZINC001369071670    0.0700
     36 H36        -1.1255    4.8844   55.8013 H       1  ZINC001369071670    0.1100
     37 H37        -0.9037    2.9559   54.3014 H       1  ZINC001369071670    0.1000
     38 H38        -2.6045    2.4114   54.6434 H       1  ZINC001369071670    0.0800
     39 H39        -4.0930    3.0790   53.2357 H       1  ZINC001369071670    0.1000
     40 H40        -4.0529    4.6013   52.3141 H       1  ZINC001369071670    0.0900
     41 H41        -4.7984    0.8565   51.3399 H       1  ZINC001369071670    0.1000
     42 H42        -5.3420    2.5348   51.1037 H       1  ZINC001369071670    0.1000
     43 H43        -5.0029    1.5024   49.6939 H       1  ZINC001369071670    0.1100
     44 H44        -4.1095    4.6553   54.9768 H       1  ZINC001369071670    0.0800
     45 H45        -2.9987    6.0791   54.7655 H       1  ZINC001369071670    0.1000
@<TRIPOS>BOND
     1     1     2    1
     2     1    26    1
     3     1    27    1
     4     1    28    1
     5     2    25    1
     6     2     3    2
     7     3     4    1
     8     3    29    1
     9     4     5    1
    10     4    24    2
    11     5     6    1
    12     6     7    1
    13     6    30    1
    14     6    31    1
    15     7     8    2
    16     7     9   am
    17     9    10    1
    18     9    32    1
    19    10    11    1
    20    10    12    1
    21    10    13    1
    22    12    33    1
    23    12    34    1
    24    12    35    1
    25    13    23    1
    26    13    14    1
    27    13    36    1
    28    14    15    1
    29    14    37    1
    30    14    38    1
    31    15    16    1
    32    15    23    1
    33    16    17    1
    34    16    39    1
    35    16    40    1
    36    17    21    1
    37    17    18    2
    38    18    19    1
    39    19    20    2
    40    20    21    1
    41    21    22    1
    42    22    41    1
    43    22    42    1
    44    22    43    1
    45    23    44    1
    46    23    45    1
    47    24    25    1
@<TRIPOS>SUBSTRUCTURE
     1 ZINC001369071670        1 TEMP              0 ****  ****    0 ROOT


##########                                Name:    ZINC000816269301
##########                DOCK_Rotatable_Bonds:                   7
##########                         Heavy_Atoms:                  25
##########                    Molecular_Weight:             358.784
##########                DOCK_Rotatable_Bonds:                   7
##########                       Formal_Charge:           0.0100002
##########                     HBond_Acceptors:                   8
##########                        HBond_Donors:                   1
##########                         Heavy_Atoms:                  25
##########                          Grid_Score:          -34.011360
##########                     Grid_vdw_energy:          -33.387280
##########                      Grid_es_energy:           -0.624081
##########           Internal_energy_repulsive:            5.030105

@<TRIPOS>MOLECULE
ZINC000816269301
 40 42 1 0 0
SMALL
USER_CHARGES


@<TRIPOS>ATOM
      1 C1          4.9686    0.7322   48.6803 C.3     1  ZINC000816269301    0.1000
      2 N2          3.5421    0.7854   48.3508 N.pl3   1  ZINC000816269301   -0.4000
      3 N3          2.9357    0.3132   47.1779 N.2     1  ZINC000816269301    0.0000
      4 N4          1.6684    0.5273   47.2331 N.2     1  ZINC000816269301   -0.2000
      5 C5          1.3487    1.1342   48.4009 C.ar    1  ZINC000816269301   -0.0300
      6 C6          0.1404    1.5749   48.9472 C.ar    1  ZINC000816269301    0.0500
      7 C7          0.1334    2.1763   50.2001 C.ar    1  ZINC000816269301   -0.1400
      8 C8         -1.1388    2.6440   50.7840 C.2     1  ZINC000816269301    0.5200
      9 O9         -1.1355    3.5229   51.6226 O.2     1  ZINC000816269301   -0.5000
     10 O10        -2.3039    2.0963   50.3868 O.3     1  ZINC000816269301   -0.3500
     11 C11        -3.4557    2.3014   51.2467 C.3     1  ZINC000816269301    0.0500
     12 C12        -4.6221    1.4451   50.7496 C.3     1  ZINC000816269301    0.1200
     13 N13        -5.7199    1.5060   51.7178 N.am    1  ZINC000816269301   -0.7200
     14 C14        -6.5967    0.4862   51.8076 C.2     1  ZINC000816269301    0.5600
     15 O15        -6.4754   -0.4847   51.0863 O.2     1  ZINC000816269301   -0.5300
     16 C16        -7.7050    0.5485   52.7830 C.ar    1  ZINC000816269301   -0.1300
     17 C17        -8.6300   -0.4944   52.8603 C.ar    1  ZINC000816269301   -0.0700
     18 C18        -9.6622   -0.4306   53.7725 C.ar    1  ZINC000816269301   -0.1200
     19 C19        -9.7824    0.6654   54.6110 C.ar    1  ZINC000816269301   -0.0100
     20 Cl20      -11.0842    0.7384   55.7572 Cl      1  ZINC000816269301   -0.0600
     21 C21        -8.8678    1.7031   54.5389 C.ar    1  ZINC000816269301   -0.1200
     22 C22        -7.8281    1.6479   53.6348 C.ar    1  ZINC000816269301   -0.0500
     23 C23         1.3309    2.3403   50.9121 C.ar    1  ZINC000816269301   -0.0200
     24 C24         2.5123    1.9125   50.3843 C.ar    1  ZINC000816269301   -0.1300
     25 C25         2.5392    1.3019   49.1327 C.ar    1  ZINC000816269301    0.1100
     26 H26         5.1875   -0.2022   49.1973 H       1  ZINC000816269301    0.0900
     27 H27         5.5556    0.7862   47.7634 H       1  ZINC000816269301    0.1000
     28 H28         5.2241    1.5729   49.3253 H       1  ZINC000816269301    0.1000
     29 H29        -0.7819    1.4493   48.3994 H       1  ZINC000816269301    0.1600
     30 H30        -3.2030    2.0139   52.2673 H       1  ZINC000816269301    0.0800
     31 H31        -3.7421    3.3529   51.2257 H       1  ZINC000816269301    0.1000
     32 H32        -4.9657    1.8228   49.7866 H       1  ZINC000816269301    0.1000
     33 H33        -4.2929    0.4121   50.6382 H       1  ZINC000816269301    0.0900
     34 H34        -5.8159    2.2803   52.2942 H       1  ZINC000816269301    0.4000
     35 H35        -8.5376   -1.3492   52.2068 H       1  ZINC000816269301    0.1400
     36 H36       -10.3785   -1.2366   53.8330 H       1  ZINC000816269301    0.1400
     37 H37        -8.9666    2.5551   55.1953 H       1  ZINC000816269301    0.1400
     38 H38        -7.1154    2.4575   53.5797 H       1  ZINC000816269301    0.1500
     39 H39         1.3165    2.8091   51.8850 H       1  ZINC000816269301    0.1500
     40 H40         3.4292    2.0430   50.9400 H       1  ZINC000816269301    0.1400
@<TRIPOS>BOND
     1     1     2    1
     2     1    26    1
     3     1    27    1
     4     1    28    1
     5     2    25    1
     6     2     3    1
     7     3     4    2
     8     4     5    1
     9     5    25   ar
    10     5     6   ar
    11     6     7   ar
    12     6    29    1
    13     7     8    1
    14     7    23   ar
    15     8     9    2
    16     8    10    1
    17    10    11    1
    18    11    12    1
    19    11    30    1
    20    11    31    1
    21    12    13    1
    22    12    32    1
    23    12    33    1
    24    13    14   am
    25    13    34    1
    26    14    15    2
    27    14    16    1
    28    16    22   ar
    29    16    17   ar
    30    17    18   ar
    31    17    35    1
    32    18    19   ar
    33    18    36    1
    34    19    20    1
    35    19    21   ar
    36    21    22   ar
    37    21    37    1
    38    22    38    1
    39    23    24   ar
    40    23    39    1
    41    24    25   ar
    42    24    40    1
@<TRIPOS>SUBSTRUCTURE
     1 ZINC000816269301        1 TEMP              0 ****  ****    0 ROOT


##########                                Name:    ZINC000058043838
##########                DOCK_Rotatable_Bonds:                   8
##########                         Heavy_Atoms:                  29
##########                    Molecular_Weight:             412.469
##########                DOCK_Rotatable_Bonds:                   8
##########                       Formal_Charge:           0.0200001
##########                     HBond_Acceptors:                   9
##########                        HBond_Donors:                   0
##########                         Heavy_Atoms:                  29
##########                          Grid_Score:          -34.006847
##########                     Grid_vdw_energy:          -34.079643
##########                      Grid_es_energy:            0.072796
##########           Internal_energy_repulsive:            8.938890

@<TRIPOS>MOLECULE
ZINC000058043838
 49 51 1 0 0
SMALL
USER_CHARGES


@<TRIPOS>ATOM
      1 C1        -13.1074    0.9747   53.0964 C.3     1  ZINC000058043838    0.0300
      2 O2        -11.8328    0.4630   53.4912 O.3     1  ZINC000058043838   -0.3800
      3 C3        -10.9426    0.2160   52.4009 C.3     1  ZINC000058043838    0.0300
      4 C4         -9.6235   -0.3442   52.9365 C.3     1  ZINC000058043838    0.1000
      5 N5         -8.9806    0.6551   53.7934 N.am    1  ZINC000058043838   -0.5200
      6 C6         -9.1391    0.5982   55.1306 C.2     1  ZINC000058043838    0.5100
      7 O7         -9.8151   -0.2794   55.6244 O.2     1  ZINC000058043838   -0.4500
      8 C8         -8.4764    1.6251   56.0124 C.3     1  ZINC000058043838   -0.0900
      9 C9         -8.6753    1.2492   57.4581 C.ar    1  ZINC000058043838   -0.1400
     10 C10        -9.9287    1.3460   58.0424 C.ar    1  ZINC000058043838   -0.0500
     11 C11       -10.0647    0.9890   59.3755 C.ar    1  ZINC000058043838   -0.1700
     12 C12        -8.9544    0.5516   60.0722 C.ar    1  ZINC000058043838    0.1300
     13 C13        -9.0907    0.1605   61.5211 C.3     1  ZINC000058043838   -0.1100
     14 N14        -7.7769    0.4721   59.4837 N.ar    1  ZINC000058043838   -0.4800
     15 C15        -7.6115    0.7981   58.2168 C.ar    1  ZINC000058043838    0.1200
     16 C16        -8.2075    1.6615   53.2276 C.2     1  ZINC000058043838    0.3100
     17 N17        -6.9788    1.5314   52.8349 N.2     1  ZINC000058043838   -0.4700
     18 C18        -6.3960    2.6031   52.3159 C.2     1  ZINC000058043838    0.1100
     19 C19        -4.9951    2.5861   51.8291 C.ar    1  ZINC000058043838    0.0400
     20 C20        -4.7151    2.2085   50.5168 C.ar    1  ZINC000058043838   -0.0800
     21 C21        -3.4097    2.1951   50.0692 C.ar    1  ZINC000058043838   -0.0500
     22 C22        -2.3802    2.5555   50.9200 C.ar    1  ZINC000058043838   -0.0400
     23 N23        -0.9820    2.5391   50.4339 N.pl3   1  ZINC000058043838    0.0300
     24 O24        -0.7398    2.2088   49.2869 O.2     1  ZINC000058043838   -0.1600
     25 O25        -0.0738    2.8560   51.1811 O.2     1  ZINC000058043838   -0.1600
     26 C26        -2.6522    2.9316   52.2231 C.ar    1  ZINC000058043838   -0.0500
     27 C27        -3.9543    2.9533   52.6803 C.ar    1  ZINC000058043838   -0.1100
     28 C28        -7.1630    3.7067   52.2610 C.2     1  ZINC000058043838   -0.2600
     29 S29        -8.7464    3.3107   52.9253 S.3     1  ZINC000058043838    0.1500
     30 H30       -12.9725    1.9201   52.5708 H       1  ZINC000058043838    0.0500
     31 H31       -13.5978    0.2590   52.4366 H       1  ZINC000058043838    0.0400
     32 H32       -13.7241    1.1354   53.9807 H       1  ZINC000058043838    0.0900
     33 H33       -11.3938   -0.5054   51.7198 H       1  ZINC000058043838    0.0600
     34 H34       -10.7522    1.1482   51.8690 H       1  ZINC000058043838    0.0800
     35 H35        -9.8203   -1.2466   53.5153 H       1  ZINC000058043838    0.1200
     36 H36        -8.9651   -0.5844   52.1016 H       1  ZINC000058043838    0.1000
     37 H37        -7.4100    1.6611   55.7898 H       1  ZINC000058043838    0.1100
     38 H38        -8.9196    2.6034   55.8270 H       1  ZINC000058043838    0.1100
     39 H39       -10.7788    1.6917   57.4732 H       1  ZINC000058043838    0.1300
     40 H40       -11.0263    1.0523   59.8632 H       1  ZINC000058043838    0.1400
     41 H41        -9.3287   -0.9010   61.5902 H       1  ZINC000058043838    0.0800
     42 H42        -8.1527    0.3570   62.0403 H       1  ZINC000058043838    0.0800
     43 H43        -9.8894    0.7425   61.9810 H       1  ZINC000058043838    0.0800
     44 H44        -6.6318    0.7200   57.7690 H       1  ZINC000058043838    0.1500
     45 H45        -5.5180    1.9266   49.8519 H       1  ZINC000058043838    0.1600
     46 H46        -3.1915    1.9024   49.0529 H       1  ZINC000058043838    0.1600
     47 H47        -1.8446    3.2119   52.8831 H       1  ZINC000058043838    0.1600
     48 H48        -4.1656    3.2475   53.6978 H       1  ZINC000058043838    0.1500
     49 H49        -6.8615    4.6686   51.8733 H       1  ZINC000058043838    0.1800
@<TRIPOS>BOND
     1     1     2    1
     2     1    30    1
     3     1    31    1
     4     1    32    1
     5     2     3    1
     6     3     4    1
     7     3    33    1
     8     3    34    1
     9     4     5    1
    10     4    35    1
    11     4    36    1
    12     5     6   am
    13     5    16    1
    14     6     7    2
    15     6     8    1
    16     8     9    1
    17     8    37    1
    18     8    38    1
    19     9    15   ar
    20     9    10   ar
    21    10    11   ar
    22    10    39    1
    23    11    12   ar
    24    11    40    1
    25    12    13    1
    26    12    14   ar
    27    13    41    1
    28    13    42    1
    29    13    43    1
    30    14    15   ar
    31    15    44    1
    32    16    29    1
    33    16    17    2
    34    17    18    1
    35    18    19    1
    36    18    28    2
    37    19    27   ar
    38    19    20   ar
    39    20    21   ar
    40    20    45    1
    41    21    22   ar
    42    21    46    1
    43    22    23    1
    44    22    26   ar
    45    23    24    2
    46    23    25    2
    47    26    27   ar
    48    26    47    1
    49    27    48    1
    50    28    29    1
    51    28    49    1
@<TRIPOS>SUBSTRUCTURE
     1 ZINC000058043838        1 TEMP              0 ****  ****    0 ROOT


##########                                Name:    ZINC001124460178
##########                DOCK_Rotatable_Bonds:                  12
##########                         Heavy_Atoms:                  22
##########                    Molecular_Weight:             328.479
##########                DOCK_Rotatable_Bonds:                  12
##########                       Formal_Charge:          -0.0100003
##########                     HBond_Acceptors:                   7
##########                        HBond_Donors:                   2
##########                         Heavy_Atoms:                  22
##########                          Grid_Score:          -33.963421
##########                     Grid_vdw_energy:          -33.292740
##########                      Grid_es_energy:           -0.670680
##########           Internal_energy_repulsive:           19.508556

@<TRIPOS>MOLECULE
ZINC001124460178
 50 50 1 0 0
SMALL
USER_CHARGES


@<TRIPOS>ATOM
      1 C1          0.9473    1.0524   47.6481 C.3     1  ZINC001124460178   -0.0700
      2 C2          0.6097    1.7703   48.9295 C.2     1  ZINC001124460178    0.3100
      3 N3          1.5436    2.2720   49.6840 N.2     1  ZINC001124460178   -0.5000
      4 S4          0.7402    2.9795   51.0040 S.3     1  ZINC001124460178    0.1800
      5 C5         -0.8347    2.5504   50.4523 C.2     1  ZINC001124460178    0.3400
      6 N6         -2.0445    2.8209   51.0659 N.pl3   1  ZINC001124460178   -0.6600
      7 C7         -3.2698    2.1781   50.5846 C.3     1  ZINC001124460178    0.0900
      8 C8         -4.4436    2.5845   51.4779 C.3     1  ZINC001124460178    0.0800
      9 H9         -4.3711    2.0634   52.4325 H       1  ZINC001124460178    0.1200
     10 O10        -4.4060    3.9954   51.7014 O.3     1  ZINC001124460178   -0.5500
     11 C11        -5.7594    2.2116   50.7920 C.3     1  ZINC001124460178    0.0900
     12 N12        -6.1180    0.8343   51.1394 N.am    1  ZINC001124460178   -0.6100
     13 C13        -5.7972   -0.2603   50.2201 C.3     1  ZINC001124460178    0.0800
     14 C14        -6.7434    0.5742   52.3046 C.2     1  ZINC001124460178    0.5100
     15 O15        -7.0391   -0.5661   52.5928 O.2     1  ZINC001124460178   -0.5400
     16 C16        -7.0752    1.7004   53.2494 C.3     1  ZINC001124460178   -0.1400
     17 C17        -8.4517    2.2702   52.9002 C.3     1  ZINC001124460178   -0.1100
     18 C18        -9.5207    1.2011   53.1354 C.3     1  ZINC001124460178   -0.1200
     19 C19       -10.8984    1.7749   52.7984 C.3     1  ZINC001124460178   -0.1200
     20 C20       -11.9525    0.6721   52.9147 C.3     1  ZINC001124460178   -0.1000
     21 C21       -12.1039    0.2639   54.3815 C.3     1  ZINC001124460178   -0.1500
     22 C22       -13.2926    1.1900   52.3885 C.3     1  ZINC001124460178   -0.1500
     23 N23        -0.6362    1.9140   49.3173 N.2     1  ZINC001124460178   -0.5800
     24 H24         0.9716    1.7680   46.8263 H       1  ZINC001124460178    0.0900
     25 H25         1.9233    0.5766   47.7444 H       1  ZINC001124460178    0.0900
     26 H26         0.1913    0.2934   47.4468 H       1  ZINC001124460178    0.0900
     27 H27        -2.0816    3.4364   51.8147 H       1  ZINC001124460178    0.4200
     28 H28        -3.4671    2.4931   49.5599 H       1  ZINC001124460178    0.0800
     29 H29        -3.1480    1.0953   50.6148 H       1  ZINC001124460178    0.0900
     30 H30        -5.1130    4.3218   52.2747 H       1  ZINC001124460178    0.3800
     31 H31        -6.5472    2.8872   51.1254 H       1  ZINC001124460178    0.0900
     32 H32        -5.6423    2.2951   49.7116 H       1  ZINC001124460178    0.1000
     33 H33        -4.8073   -0.6525   50.4537 H       1  ZINC001124460178    0.0600
     34 H34        -6.5370   -1.0537   50.3275 H       1  ZINC001124460178    0.0800
     35 H35        -5.8085    0.1108   49.1953 H       1  ZINC001124460178    0.0800
     36 H36        -7.0864    1.3250   54.2726 H       1  ZINC001124460178    0.0900
     37 H37        -6.3237    2.4846   53.1583 H       1  ZINC001124460178    0.0900
     38 H38        -8.6577    3.1349   53.5312 H       1  ZINC001124460178    0.0700
     39 H39        -8.4647    2.5730   51.8533 H       1  ZINC001124460178    0.0700
     40 H40        -9.3199    0.3402   52.4978 H       1  ZINC001124460178    0.0600
     41 H41        -9.5016    0.8918   54.1803 H       1  ZINC001124460178    0.0600
     42 H42       -11.1366    2.5800   53.4935 H       1  ZINC001124460178    0.0600
     43 H43       -10.8908    2.1643   51.7803 H       1  ZINC001124460178    0.0600
     44 H44       -11.6409   -0.1918   52.3275 H       1  ZINC001124460178    0.0700
     45 H45       -12.4155    1.1278   54.9687 H       1  ZINC001124460178    0.0500
     46 H46       -12.8549   -0.5218   54.4643 H       1  ZINC001124460178    0.0500
     47 H47       -11.1493   -0.1051   54.7563 H       1  ZINC001124460178    0.0500
     48 H48       -13.1847    1.4808   51.3436 H       1  ZINC001124460178    0.0600
     49 H49       -14.0436    0.4043   52.4713 H       1  ZINC001124460178    0.0500
     50 H50       -13.6042    2.0537   52.9757 H       1  ZINC001124460178    0.0500
@<TRIPOS>BOND
     1     1     2    1
     2     1    24    1
     3     1    25    1
     4     1    26    1
     5     2    23    1
     6     2     3    2
     7     3     4    1
     8     4     5    1
     9     5     6    1
    10     5    23    2
    11     6     7    1
    12     6    27    1
    13     7     8    1
    14     7    28    1
    15     7    29    1
    16     8     9    1
    17     8    10    1
    18     8    11    1
    19    10    30    1
    20    11    12    1
    21    11    31    1
    22    11    32    1
    23    12    13    1
    24    12    14   am
    25    13    33    1
    26    13    34    1
    27    13    35    1
    28    14    15    2
    29    14    16    1
    30    16    17    1
    31    16    36    1
    32    16    37    1
    33    17    18    1
    34    17    38    1
    35    17    39    1
    36    18    19    1
    37    18    40    1
    38    18    41    1
    39    19    20    1
    40    19    42    1
    41    19    43    1
    42    20    21    1
    43    20    22    1
    44    20    44    1
    45    21    45    1
    46    21    46    1
    47    21    47    1
    48    22    48    1
    49    22    49    1
    50    22    50    1
@<TRIPOS>SUBSTRUCTURE
     1 ZINC001124460178        1 TEMP              0 ****  ****    0 ROOT


##########                                Name:    ZINC000623695407
##########                DOCK_Rotatable_Bonds:                  10
##########                         Heavy_Atoms:                  27
##########                    Molecular_Weight:             368.479
##########                DOCK_Rotatable_Bonds:                  10
##########                       Formal_Charge:           0.0299989
##########                     HBond_Acceptors:                   6
##########                        HBond_Donors:                   2
##########                         Heavy_Atoms:                  27
##########                          Grid_Score:          -33.958931
##########                     Grid_vdw_energy:          -34.174458
##########                      Grid_es_energy:            0.215526
##########           Internal_energy_repulsive:           16.947464

@<TRIPOS>MOLECULE
ZINC000623695407
 55 57 1 0 0
SMALL
USER_CHARGES


@<TRIPOS>ATOM
      1 C1         -9.4140   -0.4090   52.9357 C.3     1  ZINC000623695407    0.0300
      2 O2         -8.1548   -0.7856   52.3746 O.3     1  ZINC000623695407   -0.3200
      3 C3         -7.2357    0.2008   52.2040 C.ar    1  ZINC000623695407    0.1300
      4 C4         -7.3748    1.4046   52.8794 C.ar    1  ZINC000623695407   -0.2100
      5 C5         -6.4389    2.4056   52.7047 C.ar    1  ZINC000623695407   -0.0600
      6 C6         -5.3644    2.2085   51.8571 C.ar    1  ZINC000623695407   -0.1100
      7 C7         -4.3451    3.3023   51.6678 C.3     1  ZINC000623695407    0.0600
      8 N8         -3.1667    3.0225   52.4991 N.3     1  ZINC000623695407   -0.4600
      9 C9         -1.9212    3.3211   51.7678 C.3     1  ZINC000623695407    0.0000
     10 C10        -1.3731    3.9349   53.0637 C.3     1  ZINC000623695407   -0.1300
     11 C11        -2.8576    4.1648   53.3793 C.3     1  ZINC000623695407    0.0100
     12 H12        -3.2386    5.1157   53.0067 H       1  ZINC000623695407    0.0900
     13 C13        -3.2140    3.9189   54.8468 C.3     1  ZINC000623695407    0.1600
     14 N14        -4.6601    4.0660   55.0295 N.am    1  ZINC000623695407   -0.7400
     15 C15        -5.2780    3.4372   56.0489 C.2     1  ZINC000623695407    0.7100
     16 O16        -4.6354    2.7467   56.8161 O.2     1  ZINC000623695407   -0.5900
     17 N17        -6.6081    3.5739   56.2179 N.am    1  ZINC000623695407   -0.7400
     18 C18        -7.2794    2.8917   57.3271 C.3     1  ZINC000623695407    0.1700
     19 H19        -6.5724    2.7426   58.1432 H       1  ZINC000623695407    0.0900
     20 C20        -8.4509    3.7454   57.8167 C.3     1  ZINC000623695407   -0.1600
     21 C21        -7.8013    1.5348   56.8502 C.3     1  ZINC000623695407   -0.0900
     22 C22        -8.3946    0.7868   58.0162 C.ar    1  ZINC000623695407   -0.0300
     23 C23        -9.6419    0.1897   57.9158 C.ar    1  ZINC000623695407   -0.1700
     24 C24       -10.1539   -0.4879   59.0061 C.ar    1  ZINC000623695407    0.1000
     25 N25        -9.4709   -0.5693   60.1312 N.ar    1  ZINC000623695407   -0.4900
     26 C26        -8.2822   -0.0138   60.2626 C.ar    1  ZINC000623695407    0.1000
     27 C27        -7.7037    0.6746   59.2131 C.ar    1  ZINC000623695407   -0.1700
     28 C28        -5.2233    1.0095   51.1832 C.ar    1  ZINC000623695407   -0.0700
     29 C29        -6.1536    0.0035   51.3585 C.ar    1  ZINC000623695407   -0.1500
     30 H30       -10.0528   -1.2884   53.0177 H       1  ZINC000623695407    0.1000
     31 H31        -9.2571    0.0195   53.9256 H       1  ZINC000623695407    0.0600
     32 H32        -9.8925    0.3291   52.2920 H       1  ZINC000623695407    0.0600
     33 H33        -8.2143    1.5592   53.5410 H       1  ZINC000623695407    0.1300
     34 H34        -6.5467    3.3429   53.2302 H       1  ZINC000623695407    0.1200
     35 H35        -4.0486    3.3453   50.6198 H       1  ZINC000623695407    0.0600
     36 H36        -4.7788    4.2580   51.9623 H       1  ZINC000623695407    0.0700
     37 H37        -1.3816    2.4299   51.4473 H       1  ZINC000623695407    0.0900
     38 H38        -2.0523    4.0468   50.9651 H       1  ZINC000623695407    0.0700
     39 H39        -0.8820    3.2195   53.7235 H       1  ZINC000623695407    0.1000
     40 H40        -0.8009    4.8509   52.9165 H       1  ZINC000623695407    0.0800
     41 H41        -2.9127    2.9103   55.1298 H       1  ZINC000623695407    0.0700
     42 H42        -2.6930    4.6430   55.4734 H       1  ZINC000623695407    0.0700
     43 H43        -5.1729    4.6160   54.4167 H       1  ZINC000623695407    0.3900
     44 H44        -7.1209    4.1239   55.6051 H       1  ZINC000623695407    0.3900
     45 H45        -8.9504    3.2377   58.6419 H       1  ZINC000623695407    0.0700
     46 H46        -8.0791    4.7120   58.1564 H       1  ZINC000623695407    0.0700
     47 H47        -9.1579    3.8944   57.0005 H       1  ZINC000623695407    0.0600
     48 H48        -8.5664    1.6870   56.0889 H       1  ZINC000623695407    0.1000
     49 H49        -6.9789    0.9570   56.4284 H       1  ZINC000623695407    0.0800
     50 H50       -10.2064    0.2535   56.9973 H       1  ZINC000623695407    0.1300
     51 H51       -11.1248   -0.9559   58.9360 H       1  ZINC000623695407    0.1500
     52 H52        -7.7527   -0.1013   61.1999 H       1  ZINC000623695407    0.1600
     53 H53        -6.7297    1.1272   59.3266 H       1  ZINC000623695407    0.1400
     54 H54        -4.3829    0.8579   50.5219 H       1  ZINC000623695407    0.1200
     55 H55        -6.0429   -0.9329   50.8319 H       1  ZINC000623695407    0.1300
@<TRIPOS>BOND
     1     1     2    1
     2     1    30    1
     3     1    31    1
     4     1    32    1
     5     2     3    1
     6     3    29   ar
     7     3     4   ar
     8     4     5   ar
     9     4    33    1
    10     5     6   ar
    11     5    34    1
    12     6     7    1
    13     6    28   ar
    14     7     8    1
    15     7    35    1
    16     7    36    1
    17     8    11    1
    18     8     9    1
    19     9    10    1
    20     9    37    1
    21     9    38    1
    22    10    11    1
    23    10    39    1
    24    10    40    1
    25    11    12    1
    26    11    13    1
    27    13    14    1
    28    13    41    1
    29    13    42    1
    30    14    15   am
    31    14    43    1
    32    15    16    2
    33    15    17   am
    34    17    18    1
    35    17    44    1
    36    18    19    1
    37    18    20    1
    38    18    21    1
    39    20    45    1
    40    20    46    1
    41    20    47    1
    42    21    22    1
    43    21    48    1
    44    21    49    1
    45    22    27   ar
    46    22    23   ar
    47    23    24   ar
    48    23    50    1
    49    24    25   ar
    50    24    51    1
    51    25    26   ar
    52    26    27   ar
    53    26    52    1
    54    27    53    1
    55    28    29   ar
    56    28    54    1
    57    29    55    1
@<TRIPOS>SUBSTRUCTURE
     1 ZINC000623695407        1 TEMP              0 ****  ****    0 ROOT


##########                                Name:     oleObject42.pdb
##########                DOCK_Rotatable_Bonds:                   9
##########                         Heavy_Atoms:                  36
##########                    Molecular_Weight:             527.493
##########                DOCK_Rotatable_Bonds:                   9
##########                       Formal_Charge:         9.99384e-05
##########                     HBond_Acceptors:                   8
##########                        HBond_Donors:                   0
##########                         Heavy_Atoms:                  36
##########                          Grid_Score:          -33.942947
##########                     Grid_vdw_energy:          -33.307880
##########                      Grid_es_energy:           -0.635067
##########           Internal_energy_repulsive:           22.960043

@<TRIPOS>MOLECULE
oleObject42.pdb
 68 71 1 0 0
SMALL
NO_CHARGES


@<TRIPOS>ATOM
      1 C         -15.6058   -2.9589   59.4376 C.ar    1  UNL        -0.0435
      2 C         -15.2797   -2.1717   58.3237 C.ar    1  UNL        -0.0559
      3 C         -14.1219   -1.3720   58.3635 C.ar    1  UNL        -0.0272
      4 C         -13.3269   -1.3946   59.5371 C.ar    1  UNL         0.0699
      5 N         -13.6534   -2.1592   60.6053 N.ar    1  UNL        -0.2586
      6 C         -14.7622   -2.9208   60.5575 C.ar    1  UNL         0.0272
      7 C         -12.0458   -0.5522   59.6613 C.3     1  UNL         0.1101
      8 C         -11.8156   -0.0001   61.0816 C.ar    1  UNL         0.0699
      9 C         -12.6778    0.9758   61.6423 C.ar    1  UNL        -0.0272
     10 C         -12.4042    1.4454   62.9408 C.ar    1  UNL        -0.0559
     11 C         -11.2949    0.9376   63.6321 C.ar    1  UNL        -0.0435
     12 C         -10.4925   -0.0239   63.0006 C.ar    1  UNL         0.0272
     13 N         -10.7452   -0.4780   61.7591 N.ar    1  UNL        -0.2586
     14 C         -13.8827    1.5264   60.8874 C.3     1  UNL        -0.0379
     15 N         -10.8568   -1.2194   59.0620 N.am    1  UNL        -0.2902
     16 C          -9.7308   -0.5181   58.6288 C.2     1  UNL         0.2180
     17 O          -8.6908   -1.1103   58.3919 O.2     1  UNL        -0.2772
     18 C          -9.7518    1.0214   58.7932 C.3     1  UNL         0.0385
     19 C         -10.3231    1.7148   57.5329 C.3     1  UNL        -0.0289
     20 C          -9.3198    1.7141   56.3597 C.3     1  UNL        -0.0010
     21 N          -8.0285    2.3192   56.7515 N.4     1  UNL        -0.3010
     22 C          -7.3988    1.6808   57.9286 C.3     1  UNL        -0.0010
     23 C          -8.3593    1.6105   59.1402 C.3     1  UNL        -0.0289
     24 C          -7.1012    2.5436   55.6204 C.3     1  UNL         0.0222
     25 C          -5.9071    3.4639   55.9590 C.3     1  UNL         0.0661
     26 O          -5.6314    4.2705   54.8031 O.3     1  UNL        -0.3432
     27 C          -4.7312    3.8133   53.8724 C.ar    1  UNL         0.0937
     28 C          -3.3798    3.6854   54.2353 C.ar    1  UNL        -0.0288
     29 C          -2.4409    3.2220   53.2988 C.ar    1  UNL        -0.0408
     30 C          -2.8546    2.8898   51.9980 C.ar    1  UNL         0.0422
     31 C          -4.2042    3.0216   51.6305 C.ar    1  UNL        -0.0221
     32 C          -5.1450    3.4847   52.5658 C.ar    1  UNL         0.0723
     33 CL         -6.8228    3.6451   52.0806 Cl      1  UNL        -0.0814
     34 CL         -1.6846    2.3127   50.8306 Cl      1  UNL        -0.0843
     35 C         -10.9818   -2.6653   58.7888 C.3     1  UNL         0.0038
     36 C         -13.7629   -0.5179   57.1524 C.3     1  UNL        -0.0379
     37 H         -16.4923   -3.5861   59.4334 H       1  UNL         0.0639
     38 H         -15.9165   -2.1852   57.4437 H       1  UNL         0.0627
     39 H         -14.9787   -3.5178   61.4426 H       1  UNL         0.0840
     40 H         -12.2256    0.3300   59.0414 H       1  UNL         0.0643
     41 H         -13.0409    2.1913   63.4083 H       1  UNL         0.0627
     42 H         -11.0613    1.2811   64.6355 H       1  UNL         0.0639
     43 H          -9.6216   -0.4438   63.5023 H       1  UNL         0.0840
     44 H         -13.5707    2.0670   59.9852 H       1  UNL         0.0280
     45 H         -14.4601    2.2262   61.5043 H       1  UNL         0.0280
     46 H         -14.5644    0.7219   60.5853 H       1  UNL         0.0280
     47 H         -10.4032    1.2709   59.6370 H       1  UNL         0.0402
     48 H         -10.5732    2.7546   57.7802 H       1  UNL         0.0288
     49 H         -11.2570    1.2327   57.2205 H       1  UNL         0.0288
     50 H          -9.7559    2.2755   55.5233 H       1  UNL         0.0431
     51 H          -9.1659    0.6805   56.0241 H       1  UNL         0.0431
     52 H          -6.5052    2.2458   58.2231 H       1  UNL         0.0431
     53 H          -7.0720    0.6660   57.6730 H       1  UNL         0.0431
     54 H          -8.4985    2.6289   59.5256 H       1  UNL         0.0288
     55 H          -7.8976    1.0314   59.9503 H       1  UNL         0.0288
     56 H          -7.6538    2.9835   54.7803 H       1  UNL         0.0455
     57 H          -6.7094    1.5773   55.2777 H       1  UNL         0.0455
     58 H          -5.0269    2.8609   56.2134 H       1  UNL         0.0586
     59 H          -6.1524    4.1054   56.8143 H       1  UNL         0.0586
     60 H          -3.0624    3.9447   55.2412 H       1  UNL         0.0652
     61 H          -1.3966    3.1221   53.5811 H       1  UNL         0.0639
     62 H          -4.5202    2.7666   50.6229 H       1  UNL         0.0655
     63 H         -11.6390   -3.1422   59.5267 H       1  UNL         0.0433
     64 H          -9.9960   -3.1440   58.8447 H       1  UNL         0.0433
     65 H         -11.3971   -2.8167   57.7847 H       1  UNL         0.0433
     66 H         -14.4742   -0.6645   56.3300 H       1  UNL         0.0280
     67 H         -12.7673   -0.7708   56.7682 H       1  UNL         0.0280
     68 H         -13.7720    0.5494   57.4046 H       1  UNL         0.0280
@<TRIPOS>BOND
     1     1     2   ar
     2     1     6   ar
     3     1    37    1
     4     2     3   ar
     5     2    38    1
     6     3     4   ar
     7     3    36    1
     8     4     5   ar
     9     4     7    1
    10     5     6   ar
    11     6    39    1
    12     7     8    1
    13     7    15    1
    14     7    40    1
    15     8     9   ar
    16     8    13   ar
    17     9    10   ar
    18     9    14    1
    19    10    11   ar
    20    10    41    1
    21    11    12   ar
    22    11    42    1
    23    12    13   ar
    24    12    43    1
    25    14    44    1
    26    14    45    1
    27    14    46    1
    28    15    16   am
    29    15    35    1
    30    16    17    2
    31    16    18    1
    32    18    19    1
    33    18    23    1
    34    18    47    1
    35    19    20    1
    36    19    48    1
    37    19    49    1
    38    20    21    1
    39    20    50    1
    40    20    51    1
    41    21    22    1
    42    21    24    1
    43    22    23    1
    44    22    52    1
    45    22    53    1
    46    23    54    1
    47    23    55    1
    48    24    25    1
    49    24    56    1
    50    24    57    1
    51    25    26    1
    52    25    58    1
    53    25    59    1
    54    26    27    1
    55    27    28   ar
    56    27    32   ar
    57    28    29   ar
    58    28    60    1
    59    29    30   ar
    60    29    61    1
    61    30    31   ar
    62    30    34    1
    63    31    32   ar
    64    31    62    1
    65    32    33    1
    66    35    63    1
    67    35    64    1
    68    35    65    1
    69    36    66    1
    70    36    67    1
    71    36    68    1
@<TRIPOS>SUBSTRUCTURE
     1 UNL         1 TEMP              0 ****  ****    0 ROOT


##########                                Name:    ZINC001411334959
##########                DOCK_Rotatable_Bonds:                   9
##########                         Heavy_Atoms:                  24
##########                    Molecular_Weight:              339.37
##########                DOCK_Rotatable_Bonds:                   9
##########                       Formal_Charge:           0.0199995
##########                     HBond_Acceptors:                   9
##########                        HBond_Donors:                   3
##########                         Heavy_Atoms:                  24
##########                          Grid_Score:          -33.942547
##########                     Grid_vdw_energy:          -30.987175
##########                      Grid_es_energy:           -2.955371
##########           Internal_energy_repulsive:            8.407452

@<TRIPOS>MOLECULE
ZINC001411334959
 46 48 1 0 0
SMALL
USER_CHARGES


@<TRIPOS>ATOM
      1 O1         -8.1285   -0.3200   59.6667 O.2     1  ZINC001411334959   -0.5400
      2 C2         -8.1317    0.8507   59.9833 C.2     1  ZINC001411334959    0.5200
      3 C3         -8.5679    1.2556   61.3678 C.3     1  ZINC001411334959   -0.1400
      4 C4         -8.3933    0.0737   62.3236 C.3     1  ZINC001411334959   -0.0100
      5 C5         -8.8211    0.4813   63.7100 C.2     1  ZINC001411334959    0.0100
      6 N6         -9.3454   -0.2899   64.6354 N.2     1  ZINC001411334959   -0.2800
      7 N7         -9.5759    0.4202   65.6825 N.pl3   1  ZINC001411334959   -0.2500
      8 N8         -9.2241    1.6422   65.4911 N.2     1  ZINC001411334959   -0.2800
      9 C9         -8.7359    1.7551   64.2766 C.2     1  ZINC001411334959   -0.0200
     10 N10        -7.7400    1.7892   59.0989 N.am    1  ZINC001411334959   -0.7200
     11 C11        -7.3160    1.3956   57.7530 C.3     1  ZINC001411334959    0.1200
     12 C12        -8.3606    1.6967   56.6652 C.3     1  ZINC001411334959   -0.1400
     13 C13        -7.1879    2.1292   55.7694 C.3     1  ZINC001411334959   -0.1200
     14 C14        -7.4855    3.3714   54.9274 C.3     1  ZINC001411334959    0.1300
     15 N15        -6.5002    3.4776   53.8485 N.am    1  ZINC001411334959   -0.7200
     16 C16        -6.5804    2.6602   52.7798 C.2     1  ZINC001411334959    0.5100
     17 O17        -7.4690    1.8377   52.7108 O.2     1  ZINC001411334959   -0.5100
     18 C18        -5.5658    2.7681   51.6708 C.3     1  ZINC001411334959    0.0700
     19 F19        -5.9571    3.7296   50.7328 F       1  ZINC001411334959   -0.1800
     20 C20        -4.1563    3.0865   52.2400 C.3     1  ZINC001411334959   -0.1600
     21 C21        -3.2506    2.4532   51.1539 C.3     1  ZINC001411334959    0.0500
     22 O22        -3.9415    1.2655   50.7351 O.3     1  ZINC001411334959   -0.3700
     23 C23        -5.3440    1.3985   50.9937 C.3     1  ZINC001411334959    0.0400
     24 C24        -6.4141    2.4327   57.0632 C.3     1  ZINC001411334959   -0.1400
     25 H25        -7.9594    2.0927   61.7103 H       1  ZINC001411334959    0.1000
     26 H26        -9.6162    1.5535   61.3461 H       1  ZINC001411334959    0.1000
     27 H27        -9.0067   -0.7612   61.9848 H       1  ZINC001411334959    0.1000
     28 H28        -7.3461   -0.2283   62.3405 H       1  ZINC001411334959    0.0900
     29 H29        -9.9626    0.0804   66.5046 H       1  ZINC001411334959    0.4700
     30 H30        -8.3536    2.6507   63.8096 H       1  ZINC001411334959    0.2000
     31 H31        -7.7388    2.7252   59.3535 H       1  ZINC001411334959    0.4000
     32 H32        -6.9228    0.3797   57.7131 H       1  ZINC001411334959    0.1200
     33 H33        -8.8826    0.8108   56.3039 H       1  ZINC001411334959    0.0800
     34 H34        -9.0368    2.5119   56.9230 H       1  ZINC001411334959    0.0900
     35 H35        -6.7612    1.3139   55.1850 H       1  ZINC001411334959    0.1000
     36 H36        -8.4849    3.2898   54.4999 H       1  ZINC001411334959    0.0800
     37 H37        -7.4313    4.2591   55.5576 H       1  ZINC001411334959    0.0800
     38 H38        -5.7901    4.1362   53.9030 H       1  ZINC001411334959    0.4100
     39 H39        -3.9941    4.1621   52.3085 H       1  ZINC001411334959    0.1000
     40 H40        -4.0053    2.6058   53.2066 H       1  ZINC001411334959    0.1100
     41 H41        -3.1317    3.1378   50.3141 H       1  ZINC001411334959    0.0700
     42 H42        -2.2782    2.1969   51.5746 H       1  ZINC001411334959    0.1000
     43 H43        -5.6750    0.5999   51.6577 H       1  ZINC001411334959    0.0900
     44 H44        -5.8986    1.3553   50.0563 H       1  ZINC001411334959    0.0900
     45 H45        -6.5581    3.4491   57.4298 H       1  ZINC001411334959    0.0900
     46 H46        -5.3647    2.1409   57.0230 H       1  ZINC001411334959    0.0800
@<TRIPOS>BOND
     1     1     2    2
     2     2     3    1
     3     2    10   am
     4     3     4    1
     5     3    25    1
     6     3    26    1
     7     4     5    1
     8     4    27    1
     9     4    28    1
    10     5     9    1
    11     5     6    2
    12     6     7    1
    13     7     8    1
    14     7    29    1
    15     8     9    2
    16     9    30    1
    17    10    11    1
    18    10    31    1
    19    11    24    1
    20    11    12    1
    21    11    32    1
    22    12    13    1
    23    12    33    1
    24    12    34    1
    25    13    14    1
    26    13    24    1
    27    13    35    1
    28    14    15    1
    29    14    36    1
    30    14    37    1
    31    15    16   am
    32    15    38    1
    33    16    17    2
    34    16    18    1
    35    18    23    1
    36    18    19    1
    37    18    20    1
    38    20    21    1
    39    20    39    1
    40    20    40    1
    41    21    22    1
    42    21    41    1
    43    21    42    1
    44    22    23    1
    45    23    43    1
    46    23    44    1
    47    24    45    1
    48    24    46    1
@<TRIPOS>SUBSTRUCTURE
     1 ZINC001411334959        1 TEMP              0 ****  ****    0 ROOT


##########                                Name:    ZINC000809503567
##########                DOCK_Rotatable_Bonds:                   9
##########                         Heavy_Atoms:                  26
##########                    Molecular_Weight:             353.378
##########                DOCK_Rotatable_Bonds:                   9
##########                       Formal_Charge:          -0.0200002
##########                     HBond_Acceptors:                   7
##########                        HBond_Donors:                   1
##########                         Heavy_Atoms:                  26
##########                          Grid_Score:          -33.917702
##########                     Grid_vdw_energy:          -34.230480
##########                      Grid_es_energy:            0.312778
##########           Internal_energy_repulsive:           12.924875

@<TRIPOS>MOLECULE
ZINC000809503567
 45 46 1 0 0
SMALL
USER_CHARGES


@<TRIPOS>ATOM
      1 C1          2.7282    3.3521   49.5862 C.3     1  ZINC000809503567    0.0200
      2 O2          1.9839    2.2777   50.1639 O.3     1  ZINC000809503567   -0.3100
      3 C3          0.7106    2.5471   50.5484 C.ar    1  ZINC000809503567    0.1900
      4 C4          0.4709    3.2492   51.7192 C.ar    1  ZINC000809503567   -0.2100
      5 C5         -0.8257    3.5227   52.1096 C.ar    1  ZINC000809503567   -0.0200
      6 C6         -1.8942    3.0988   51.3374 C.ar    1  ZINC000809503567   -0.1500
      7 C7         -3.3036    3.4035   51.7750 C.3     1  ZINC000809503567    0.1700
      8 N8         -4.0587    2.1538   51.8949 N.am    1  ZINC000809503567   -0.7000
      9 C9         -5.0011    1.8457   50.9820 C.2     1  ZINC000809503567    0.5100
     10 O10        -5.2252    2.6040   50.0616 O.2     1  ZINC000809503567   -0.4900
     11 C11        -5.7701    0.5700   51.1034 C.2     1  ZINC000809503567    0.5100
     12 O12        -5.5842   -0.3285   50.3091 O.2     1  ZINC000809503567   -0.5000
     13 N13        -6.6700    0.4173   52.0949 N.am    1  ZINC000809503567   -0.4600
     14 C14        -7.4252   -0.8325   52.2129 C.3     1  ZINC000809503567    0.0800
     15 O15        -6.8857    1.4651   53.0227 O.3     1  ZINC000809503567   -0.1100
     16 C16        -8.0523    2.2464   52.7563 C.3     1  ZINC000809503567    0.0800
     17 C17        -9.2680    1.5303   53.2856 C.ar    1  ZINC000809503567   -0.0900
     18 C18        -9.1862    0.8041   54.4589 C.ar    1  ZINC000809503567   -0.1000
     19 C19       -10.3014    0.1471   54.9445 C.ar    1  ZINC000809503567   -0.1300
     20 C20       -11.4986    0.2169   54.2569 C.ar    1  ZINC000809503567   -0.1100
     21 C21       -11.5807    0.9439   53.0840 C.ar    1  ZINC000809503567   -0.1300
     22 C22       -10.4665    1.6043   52.6008 C.ar    1  ZINC000809503567   -0.0800
     23 C23        -1.6741    2.3998   50.1696 C.ar    1  ZINC000809503567   -0.0100
     24 C24        -0.3680    2.1215   49.7603 C.ar    1  ZINC000809503567   -0.0600
     25 C25        -0.1322    1.3958   48.5485 C.1     1  ZINC000809503567    0.2600
     26 N26         0.0548    0.8200   47.5872 N.1     1  ZINC000809503567   -0.4100
     27 H27         2.8058    4.1680   50.3049 H       1  ZINC000809503567    0.0600
     28 H28         3.7269    3.0026   49.3241 H       1  ZINC000809503567    0.1100
     29 H29         2.2198    3.7053   48.6891 H       1  ZINC000809503567    0.0600
     30 H30         1.2987    3.5826   52.3273 H       1  ZINC000809503567    0.1400
     31 H31        -1.0073    4.0702   53.0227 H       1  ZINC000809503567    0.1400
     32 H32        -3.2831    3.9096   52.7402 H       1  ZINC000809503567    0.0900
     33 H33        -3.7819    4.0477   51.0371 H       1  ZINC000809503567    0.0900
     34 H34        -3.8804    1.5482   52.6313 H       1  ZINC000809503567    0.4100
     35 H35        -6.8785   -1.5287   52.8489 H       1  ZINC000809503567    0.0800
     36 H36        -8.4008   -0.6273   52.6535 H       1  ZINC000809503567    0.0800
     37 H37        -7.5581   -1.2714   51.2241 H       1  ZINC000809503567    0.0900
     38 H38        -7.9598    3.2159   53.2459 H       1  ZINC000809503567    0.0700
     39 H39        -8.1551    2.3908   51.6809 H       1  ZINC000809503567    0.0600
     40 H40        -8.2509    0.7496   54.9961 H       1  ZINC000809503567    0.1200
     41 H41       -10.2373   -0.4208   55.8608 H       1  ZINC000809503567    0.1200
     42 H42       -12.3697   -0.2968   54.6358 H       1  ZINC000809503567    0.1200
     43 H43       -12.5159    0.9981   52.5466 H       1  ZINC000809503567    0.1200
     44 H44       -10.5307    2.1724   51.6844 H       1  ZINC000809503567    0.1300
     45 H45        -2.5103    2.0710   49.5704 H       1  ZINC000809503567    0.1400
@<TRIPOS>BOND
     1     1     2    1
     2     1    27    1
     3     1    28    1
     4     1    29    1
     5     2     3    1
     6     3    24   ar
     7     3     4   ar
     8     4     5   ar
     9     4    30    1
    10     5     6   ar
    11     5    31    1
    12     6     7    1
    13     6    23   ar
    14     7     8    1
    15     7    32    1
    16     7    33    1
    17     8     9   am
    18     8    34    1
    19     9    10    2
    20     9    11    1
    21    11    12    2
    22    11    13   am
    23    13    14    1
    24    13    15    1
    25    14    35    1
    26    14    36    1
    27    14    37    1
    28    15    16    1
    29    16    17    1
    30    16    38    1
    31    16    39    1
    32    17    22   ar
    33    17    18   ar
    34    18    19   ar
    35    18    40    1
    36    19    20   ar
    37    19    41    1
    38    20    21   ar
    39    20    42    1
    40    21    22   ar
    41    21    43    1
    42    22    44    1
    43    23    24   ar
    44    23    45    1
    45    24    25    1
    46    25    26    3
@<TRIPOS>SUBSTRUCTURE
     1 ZINC000809503567        1 TEMP              0 ****  ****    0 ROOT


##########                                Name:    ZINC000762187039
##########                DOCK_Rotatable_Bonds:                   9
##########                         Heavy_Atoms:                  25
##########                    Molecular_Weight:             354.473
##########                DOCK_Rotatable_Bonds:                   9
##########                       Formal_Charge:        -1.78814e-07
##########                     HBond_Acceptors:                   5
##########                        HBond_Donors:                   1
##########                         Heavy_Atoms:                  25
##########                          Grid_Score:          -33.906174
##########                     Grid_vdw_energy:          -33.748859
##########                      Grid_es_energy:           -0.157315
##########           Internal_energy_repulsive:            7.907383

@<TRIPOS>MOLECULE
ZINC000762187039
 47 49 1 0 0
SMALL
USER_CHARGES


@<TRIPOS>ATOM
      1 C1        -11.6770   -2.3386   56.6145 C.3     1  ZINC000762187039   -0.0800
      2 C2        -11.1276   -1.2205   55.7665 C.2     1  ZINC000762187039    0.0500
      3 N3        -10.2485   -1.3651   54.8331 N.2     1  ZINC000762187039   -0.4700
      4 C4         -9.8758   -0.2796   54.1853 C.2     1  ZINC000762187039    0.0700
      5 C5         -8.8591   -0.3026   53.0734 C.3     1  ZINC000762187039   -0.0300
      6 C6         -7.9808    0.9472   53.1595 C.3     1  ZINC000762187039   -0.1300
      7 C7         -6.9304    0.8985   52.0798 C.2     1  ZINC000762187039    0.5200
      8 O8         -6.5414   -0.1709   51.6602 O.2     1  ZINC000762187039   -0.5400
      9 N9         -6.4234    2.0431   51.5808 N.am    1  ZINC000762187039   -0.7300
     10 C10        -5.4012    1.9957   50.5325 C.3     1  ZINC000762187039    0.1200
     11 C11        -4.0571    2.4439   51.1101 C.3     1  ZINC000762187039   -0.1300
     12 C12        -2.9329    2.0523   50.1490 C.3     1  ZINC000762187039    0.0600
     13 O13        -1.7375    2.7497   50.5049 O.3     1  ZINC000762187039   -0.3100
     14 C14        -0.5608    2.2020   50.1025 C.ar    1  ZINC000762187039    0.1300
     15 C15        -0.4588    1.6498   48.8222 C.ar    1  ZINC000762187039   -0.1900
     16 C16         0.7055    1.0944   48.3909 C.ar    1  ZINC000762187039   -0.0600
     17 C17         1.8246    1.0734   49.2410 C.ar    1  ZINC000762187039   -0.0800
     18 C18         3.0430    0.5081   48.8276 C.ar    1  ZINC000762187039   -0.0900
     19 C19         4.1068    0.5052   49.6764 C.ar    1  ZINC000762187039   -0.1300
     20 C20         4.0078    1.0553   50.9532 C.ar    1  ZINC000762187039   -0.1000
     21 C21         2.8444    1.6113   51.3883 C.ar    1  ZINC000762187039   -0.1200
     22 C22         1.7238    1.6331   50.5396 C.ar    1  ZINC000762187039   -0.0100
     23 C23         0.5087    2.2030   50.9524 C.ar    1  ZINC000762187039   -0.1500
     24 C24       -10.4740    0.8431   54.5950 C.2     1  ZINC000762187039   -0.2600
     25 S25       -11.5841    0.4219   55.8969 S.3     1  ZINC000762187039    0.1200
     26 H26       -12.4054   -1.9363   57.3186 H       1  ZINC000762187039    0.0800
     27 H27       -12.1600   -3.0767   55.9742 H       1  ZINC000762187039    0.0900
     28 H28       -10.8631   -2.8113   57.1642 H       1  ZINC000762187039    0.0900
     29 H29        -8.2360   -1.1918   53.1689 H       1  ZINC000762187039    0.0900
     30 H30        -9.3725   -0.3203   52.1119 H       1  ZINC000762187039    0.0900
     31 H31        -8.5984    1.8353   53.0257 H       1  ZINC000762187039    0.0900
     32 H32        -7.4970    0.9847   54.1355 H       1  ZINC000762187039    0.1000
     33 H33        -6.7354    2.8984   51.9157 H       1  ZINC000762187039    0.4000
     34 H34        -5.3133    0.9764   50.1567 H       1  ZINC000762187039    0.0700
     35 H35        -5.6859    2.6604   49.7170 H       1  ZINC000762187039    0.0700
     36 H36        -4.0614    3.5258   51.2428 H       1  ZINC000762187039    0.0800
     37 H37        -3.8963    1.9603   52.0736 H       1  ZINC000762187039    0.0800
     38 H38        -2.7592    0.9781   50.2115 H       1  ZINC000762187039    0.0700
     39 H39        -3.2176    2.3157   49.1303 H       1  ZINC000762187039    0.0700
     40 H40        -1.3168    1.6642   48.1663 H       1  ZINC000762187039    0.1300
     41 H41         0.7696    0.6709   47.3995 H       1  ZINC000762187039    0.1300
     42 H42         3.1347    0.0778   47.8412 H       1  ZINC000762187039    0.1300
     43 H43         5.0417    0.0697   49.3560 H       1  ZINC000762187039    0.1200
     44 H44         4.8671    1.0397   51.6073 H       1  ZINC000762187039    0.1200
     45 H45         2.7823    2.0339   52.3802 H       1  ZINC000762187039    0.1300
     46 H46         0.4191    2.6364   51.9375 H       1  ZINC000762187039    0.1300
     47 H47       -10.3089    1.8329   54.1961 H       1  ZINC000762187039    0.1800
@<TRIPOS>BOND
     1     1     2    1
     2     1    26    1
     3     1    27    1
     4     1    28    1
     5     2    25    1
     6     2     3    2
     7     3     4    1
     8     4     5    1
     9     4    24    2
    10     5     6    1
    11     5    29    1
    12     5    30    1
    13     6     7    1
    14     6    31    1
    15     6    32    1
    16     7     8    2
    17     7     9   am
    18     9    10    1
    19     9    33    1
    20    10    11    1
    21    10    34    1
    22    10    35    1
    23    11    12    1
    24    11    36    1
    25    11    37    1
    26    12    13    1
    27    12    38    1
    28    12    39    1
    29    13    14    1
    30    14    23   ar
    31    14    15   ar
    32    15    16   ar
    33    15    40    1
    34    16    17   ar
    35    16    41    1
    36    17    22   ar
    37    17    18   ar
    38    18    19   ar
    39    18    42    1
    40    19    20   ar
    41    19    43    1
    42    20    21   ar
    43    20    44    1
    44    21    22   ar
    45    21    45    1
    46    22    23   ar
    47    23    46    1
    48    24    25    1
    49    24    47    1
@<TRIPOS>SUBSTRUCTURE
     1 ZINC000762187039        1 TEMP              0 ****  ****    0 ROOT


##########                                Name:    ZINC001573443776
##########                DOCK_Rotatable_Bonds:                   8
##########                         Heavy_Atoms:                  28
##########                    Molecular_Weight:             386.457
##########                DOCK_Rotatable_Bonds:                   8
##########                       Formal_Charge:          0.00999954
##########                     HBond_Acceptors:                  10
##########                        HBond_Donors:                   3
##########                         Heavy_Atoms:                  28
##########                          Grid_Score:          -33.895962
##########                     Grid_vdw_energy:          -31.799728
##########                      Grid_es_energy:           -2.096233
##########           Internal_energy_repulsive:           39.286388

@<TRIPOS>MOLECULE
ZINC001573443776
 54 56 1 0 0
SMALL
USER_CHARGES


@<TRIPOS>ATOM
      1 C1         -8.5873    0.4756   59.2676 C.3     1  ZINC001573443776   -0.1800
      2 C2         -7.8581    1.0474   58.0792 C.2     1  ZINC001573443776    0.5100
      3 O3         -6.6454    1.0493   58.0553 O.2     1  ZINC001573443776   -0.5400
      4 N4         -8.5533    1.5566   57.0431 N.am    1  ZINC001573443776   -0.6100
      5 C5        -10.0226    1.5613   57.0576 C.3     1  ZINC001573443776    0.1100
      6 C6        -10.5305    0.8895   55.7779 C.3     1  ZINC001573443776   -0.1300
      7 C7         -9.9117    1.5833   54.5622 C.3     1  ZINC001573443776   -0.1000
      8 C8         -8.3888    1.4398   54.6112 C.3     1  ZINC001573443776   -0.1200
      9 H9         -8.1231    0.3828   54.6254 H       1  ZINC001573443776    0.1000
     10 C10        -7.7826    2.0946   53.3967 C.2     1  ZINC001573443776    0.5200
     11 O11        -8.4589    2.2815   52.4075 O.2     1  ZINC001573443776   -0.5300
     12 N12        -6.4889    2.4723   53.4100 N.am    1  ZINC001573443776   -0.7300
     13 C13        -5.9001    3.1103   52.2299 C.3     1  ZINC001573443776    0.1100
     14 C14        -4.7171    2.2753   51.7357 C.3     1  ZINC001573443776    0.1400
     15 H15        -4.0764    2.0182   52.5791 H       1  ZINC001573443776    0.0900
     16 C16        -5.2358    0.9939   51.0800 C.3     1  ZINC001573443776   -0.1700
     17 N17        -3.9489    3.0484   50.7567 N.pl3   1  ZINC001573443776   -0.7200
     18 C18        -2.6134    2.7441   50.5250 C.ar    1  ZINC001573443776    0.4300
     19 C19        -1.6605    3.0540   51.4912 C.ar    1  ZINC001573443776   -0.2500
     20 C20        -0.3349    2.7479   51.2533 C.ar    1  ZINC001573443776    0.0100
     21 C21        -0.0009    2.1339   50.0415 C.ar    1  ZINC001573443776   -0.1400
     22 C22         1.4096    1.7845   49.7390 C.2     1  ZINC001573443776    0.2400
     23 N23         1.9244    0.5725   49.6756 N.2     1  ZINC001573443776   -0.3000
     24 N24         3.1751    0.6898   49.3880 N.pl3   1  ZINC001573443776   -0.2300
     25 N25         3.4691    1.9373   49.2670 N.2     1  ZINC001573443776   -0.0500
     26 N26         2.4067    2.6397   49.4711 N.2     1  ZINC001573443776   -0.2700
     27 C27        -1.0091    1.8547   49.1237 C.ar    1  ZINC001573443776    0.2300
     28 C28        -0.6633    1.1935   47.8144 C.3     1  ZINC001573443776   -0.1200
     29 N29        -2.2637    2.1579   49.3897 N.ar    1  ZINC001573443776   -0.5400
     30 C30        -7.8566    2.1230   55.8801 C.3     1  ZINC001573443776    0.1200
     31 H31        -8.6825    1.2408   60.0380 H       1  ZINC001573443776    0.0900
     32 H32        -9.5790    0.1441   58.9603 H       1  ZINC001573443776    0.0800
     33 H33        -8.0276   -0.3715   59.6641 H       1  ZINC001573443776    0.1000
     34 H34       -10.3812    1.0099   57.9268 H       1  ZINC001573443776    0.1000
     35 H35       -10.3843    2.5887   57.0992 H       1  ZINC001573443776    0.0700
     36 H36       -10.2447   -0.1624   55.7811 H       1  ZINC001573443776    0.0700
     37 H37       -11.6163    0.9718   55.7302 H       1  ZINC001573443776    0.0800
     38 H38       -10.2906    1.1231   53.6496 H       1  ZINC001573443776    0.0800
     39 H39       -10.1775    2.6403   54.5730 H       1  ZINC001573443776    0.0700
     40 H40        -5.9477    2.3218   54.2007 H       1  ZINC001573443776    0.4000
     41 H41        -6.6501    3.1798   51.4421 H       1  ZINC001573443776    0.0900
     42 H42        -5.5547    4.1105   52.4919 H       1  ZINC001573443776    0.0800
     43 H43        -5.8074    0.4188   51.8083 H       1  ZINC001573443776    0.0700
     44 H44        -5.8766    1.2511   50.2365 H       1  ZINC001573443776    0.0700
     45 H45        -4.3931    0.3991   50.7279 H       1  ZINC001573443776    0.0700
     46 H46        -4.3727    3.7727   50.2703 H       1  ZINC001573443776    0.4100
     47 H47        -1.9543    3.5286   52.4157 H       1  ZINC001573443776    0.1400
     48 H48         0.4254    2.9773   51.9852 H       1  ZINC001573443776    0.1400
     49 H49         3.7974   -0.0464   49.2799 H       1  ZINC001573443776    0.4800
     50 H50        -0.7160    0.1108   47.9289 H       1  ZINC001573443776    0.0800
     51 H51        -1.3701    1.5126   47.0485 H       1  ZINC001573443776    0.0800
     52 H52         0.3463    1.4788   47.5187 H       1  ZINC001573443776    0.1100
     53 H53        -8.0421    3.1956   55.8230 H       1  ZINC001573443776    0.0800
     54 H54        -6.7860    1.9397   55.9722 H       1  ZINC001573443776    0.0900
@<TRIPOS>BOND
     1     1     2    1
     2     1    31    1
     3     1    32    1
     4     1    33    1
     5     2     3    2
     6     2     4   am
     7     4    30    1
     8     4     5    1
     9     5     6    1
    10     5    34    1
    11     5    35    1
    12     6     7    1
    13     6    36    1
    14     6    37    1
    15     7     8    1
    16     7    38    1
    17     7    39    1
    18     8     9    1
    19     8    10    1
    20     8    30    1
    21    10    11    2
    22    10    12   am
    23    12    13    1
    24    12    40    1
    25    13    14    1
    26    13    41    1
    27    13    42    1
    28    14    15    1
    29    14    16    1
    30    14    17    1
    31    16    43    1
    32    16    44    1
    33    16    45    1
    34    17    18    1
    35    17    46    1
    36    18    29   ar
    37    18    19   ar
    38    19    20   ar
    39    19    47    1
    40    20    21   ar
    41    20    48    1
    42    21    22    1
    43    21    27   ar
    44    22    26    1
    45    22    23    2
    46    23    24    1
    47    24    25    1
    48    24    49    1
    49    25    26    2
    50    27    28    1
    51    27    29   ar
    52    28    50    1
    53    28    51    1
    54    28    52    1
    55    30    53    1
    56    30    54    1
@<TRIPOS>SUBSTRUCTURE
     1 ZINC001573443776        1 TEMP              0 ****  ****    0 ROOT


##########                                Name:    ZINC001340305486
##########                DOCK_Rotatable_Bonds:                   8
##########                         Heavy_Atoms:                  27
##########                    Molecular_Weight:             378.431
##########                DOCK_Rotatable_Bonds:                   8
##########                       Formal_Charge:          0.00999955
##########                     HBond_Acceptors:                  10
##########                        HBond_Donors:                   2
##########                         Heavy_Atoms:                  27
##########                          Grid_Score:          -33.882610
##########                     Grid_vdw_energy:          -32.593460
##########                      Grid_es_energy:           -1.289152
##########           Internal_energy_repulsive:           12.327211

@<TRIPOS>MOLECULE
ZINC001340305486
 53 55 1 0 0
SMALL
USER_CHARGES


@<TRIPOS>ATOM
      1 C1         -8.2680    2.3007   59.5850 C.3     1  ZINC001340305486    0.0900
      2 N2         -9.2720    1.3320   59.1381 N.am    1  ZINC001340305486   -0.7300
      3 C3         -8.9222    0.0475   58.9276 C.2     1  ZINC001340305486    0.5200
      4 O4         -7.7759   -0.3060   59.1067 O.2     1  ZINC001340305486   -0.5100
      5 C5         -9.9553   -0.9495   58.4696 C.3     1  ZINC001340305486    0.0600
      6 H6         -9.4686   -1.7446   57.9048 H       1  ZINC001340305486    0.0900
      7 C7        -10.9861   -0.2462   57.5793 C.3     1  ZINC001340305486    0.0900
      8 N8        -12.0797   -1.1905   57.3005 N.am    1  ZINC001340305486   -0.5800
      9 C9        -12.5027   -1.4097   56.0397 C.2     1  ZINC001340305486    0.5100
     10 O10       -13.4065   -2.1919   55.8303 O.2     1  ZINC001340305486   -0.5200
     11 C11       -11.8587   -0.6892   54.8996 C.2     1  ZINC001340305486    0.5200
     12 O12       -12.3413    0.3440   54.4847 O.2     1  ZINC001340305486   -0.5000
     13 N13       -10.7422   -1.1871   54.3323 N.am    1  ZINC001340305486   -0.6900
     14 C14       -10.1120   -0.4817   53.2135 C.3     1  ZINC001340305486    0.1200
     15 C15        -8.8962    0.2962   53.7210 C.3     1  ZINC001340305486   -0.0400
     16 C16        -7.7938    0.2299   52.6957 C.2     1  ZINC001340305486    0.1700
     17 N17        -7.4234   -0.8267   52.0216 N.2     1  ZINC001340305486   -0.2800
     18 N18        -6.4562   -0.5189   51.2294 N.2     1  ZINC001340305486   -0.2900
     19 C19        -6.1716    0.7455   51.3599 C.2     1  ZINC001340305486    0.1900
     20 C20        -5.1265    1.5260   50.6060 C.3     1  ZINC001340305486   -0.0400
     21 C21        -4.3234    2.3743   51.5966 C.3     1  ZINC001340305486   -0.1200
     22 C22        -5.0110    3.7226   51.7897 C.3     1  ZINC001340305486   -0.1300
     23 C23        -6.5278    3.5694   51.6877 C.3     1  ZINC001340305486   -0.1400
     24 C24        -7.0279    2.6308   52.7894 C.3     1  ZINC001340305486    0.1000
     25 N25        -7.0064    1.2531   52.2966 N.pl3   1  ZINC001340305486   -0.4600
     26 C26       -12.6983   -1.8880   58.4390 C.3     1  ZINC001340305486    0.0200
     27 C27       -11.5840   -2.5113   59.2875 C.3     1  ZINC001340305486    0.0500
     28 O28       -10.6171   -1.5079   59.6070 O.3     1  ZINC001340305486   -0.3500
     29 H29        -7.8544    1.9804   60.5412 H       1  ZINC001340305486    0.0600
     30 H30        -7.4691    2.3631   58.8462 H       1  ZINC001340305486    0.0600
     31 H31        -8.7336    3.2795   59.7003 H       1  ZINC001340305486    0.0800
     32 H32       -10.1884    1.6149   58.9937 H       1  ZINC001340305486    0.4000
     33 H33       -11.3799    0.6297   58.0949 H       1  ZINC001340305486    0.0900
     34 H34       -10.5165    0.0581   56.6439 H       1  ZINC001340305486    0.1100
     35 H35       -10.3559   -2.0123   54.6647 H       1  ZINC001340305486    0.4200
     36 H36        -9.7934   -1.2040   52.4618 H       1  ZINC001340305486    0.0900
     37 H37       -10.8279    0.2111   52.7712 H       1  ZINC001340305486    0.0800
     38 H38        -9.1746    1.3366   53.8886 H       1  ZINC001340305486    0.0900
     39 H39        -8.5490   -0.1423   54.6567 H       1  ZINC001340305486    0.1100
     40 H40        -4.4577    0.8365   50.0907 H       1  ZINC001340305486    0.1000
     41 H41        -5.6118    2.1768   49.8785 H       1  ZINC001340305486    0.0900
     42 H42        -4.2649    1.8563   52.5539 H       1  ZINC001340305486    0.0600
     43 H43        -3.3176    2.5322   51.2074 H       1  ZINC001340305486    0.0800
     44 H44        -4.7548    4.1197   52.7720 H       1  ZINC001340305486    0.0700
     45 H45        -4.6669    4.4151   51.0215 H       1  ZINC001340305486    0.0800
     46 H46        -6.9993    4.5456   51.8015 H       1  ZINC001340305486    0.0900
     47 H47        -6.7857    3.1546   50.7132 H       1  ZINC001340305486    0.0800
     48 H48        -6.3818    2.7185   53.6628 H       1  ZINC001340305486    0.0900
     49 H49        -8.0479    2.9015   53.0625 H       1  ZINC001340305486    0.1000
     50 H50       -13.2644   -1.1774   59.0412 H       1  ZINC001340305486    0.0800
     51 H51       -13.3625   -2.6708   58.0729 H       1  ZINC001340305486    0.1700
     52 H52       -12.0085   -2.9138   60.2072 H       1  ZINC001340305486    0.1200
     53 H53       -11.1039   -3.3127   58.7259 H       1  ZINC001340305486    0.0600
@<TRIPOS>BOND
     1     1     2    1
     2     1    29    1
     3     1    30    1
     4     1    31    1
     5     2     3   am
     6     2    32    1
     7     3     4    2
     8     3     5    1
     9     5     6    1
    10     5    28    1
    11     5     7    1
    12     7     8    1
    13     7    33    1
    14     7    34    1
    15     8     9   am
    16     8    26    1
    17     9    10    2
    18     9    11    1
    19    11    12    2
    20    11    13   am
    21    13    14    1
    22    13    35    1
    23    14    15    1
    24    14    36    1
    25    14    37    1
    26    15    16    1
    27    15    38    1
    28    15    39    1
    29    16    25    1
    30    16    17    2
    31    17    18    1
    32    18    19    2
    33    19    25    1
    34    19    20    1
    35    20    21    1
    36    20    40    1
    37    20    41    1
    38    21    22    1
    39    21    42    1
    40    21    43    1
    41    22    23    1
    42    22    44    1
    43    22    45    1
    44    23    24    1
    45    23    46    1
    46    23    47    1
    47    24    25    1
    48    24    48    1
    49    24    49    1
    50    26    27    1
    51    26    50    1
    52    26    51    1
    53    27    28    1
    54    27    52    1
    55    27    53    1
@<TRIPOS>SUBSTRUCTURE
     1 ZINC001340305486        1 TEMP              0 ****  ****    0 ROOT


##########                                Name:    ZINC000572257265
##########                DOCK_Rotatable_Bonds:                  11
##########                         Heavy_Atoms:                  24
##########                    Molecular_Weight:             393.509
##########                DOCK_Rotatable_Bonds:                  11
##########                       Formal_Charge:          -0.0100002
##########                     HBond_Acceptors:                  11
##########                        HBond_Donors:                   3
##########                         Heavy_Atoms:                  24
##########                          Grid_Score:          -33.810684
##########                     Grid_vdw_energy:          -32.291222
##########                      Grid_es_energy:           -1.519464
##########           Internal_energy_repulsive:           11.943992

@<TRIPOS>MOLECULE
ZINC000572257265
 43 43 1 0 0
SMALL
USER_CHARGES


@<TRIPOS>ATOM
      1 C1          2.4272   -0.8822   47.1316 C.3     1  ZINC000572257265   -0.1300
      2 S2          2.9582    0.8390   47.3465 S.3     1  ZINC000572257265   -0.2200
      3 C3          1.8084    1.4670   48.6012 C.3     1  ZINC000572257265   -0.1300
      4 C4          2.5172    1.5320   49.9555 C.3     1  ZINC000572257265    0.1500
      5 C5          3.1310    0.1676   50.2760 C.3     1  ZINC000572257265   -0.1500
      6 O6          3.5496    2.5188   49.9059 O.3     1  ZINC000572257265   -0.5400
      7 C7          1.5071    1.9049   51.0425 C.3     1  ZINC000572257265    0.0900
      8 N8          1.2932    3.3541   51.0340 N.am    1  ZINC000572257265   -1.1100
      9 S9          0.2613    4.0453   52.1295 S.o2    1  ZINC000572257265    2.6900
     10 O10         0.6880    3.6095   53.4129 O.2     1  ZINC000572257265   -0.9400
     11 O11         0.1539    5.4159   51.7700 O.2     1  ZINC000572257265   -0.9500
     12 C12        -1.3299    3.3358   51.8666 C.ar    1  ZINC000572257265   -0.6300
     13 C13        -2.2918    3.4096   52.8566 C.ar    1  ZINC000572257265   -0.0400
     14 C14        -3.5402    2.8529   52.6504 C.ar    1  ZINC000572257265   -0.0400
     15 C15        -3.8267    2.2226   51.4539 C.ar    1  ZINC000572257265   -0.6300
     16 S16        -5.4178    1.5125   51.1913 S.o2    1  ZINC000572257265    2.7000
     17 O17        -5.2196    0.3837   50.3510 O.2     1  ZINC000572257265   -0.9400
     18 O18        -6.0369    1.4320   52.4677 O.2     1  ZINC000572257265   -0.9400
     19 N19        -6.3013    2.6015   50.3106 N.am    1  ZINC000572257265   -1.1200
     20 C20        -6.5567    3.9411   50.8459 C.3     1  ZINC000572257265    0.2200
     21 C21        -7.9896    4.0822   51.1521 C.1     1  ZINC000572257265    0.1900
     22 N22        -9.0954    4.1912   51.3883 N.1     1  ZINC000572257265   -0.3900
     23 C23        -2.8652    2.1498   50.4633 C.ar    1  ZINC000572257265   -0.0400
     24 C24        -1.6181    2.7099   50.6682 C.ar    1  ZINC000572257265   -0.0400
     25 H25         1.3899   -0.9034   46.7974 H       1  ZINC000572257265    0.0800
     26 H26         3.0588   -1.3670   46.3871 H       1  ZINC000572257265    0.1000
     27 H27         2.5139   -1.4105   48.0811 H       1  ZINC000572257265    0.0800
     28 H28         1.4720    2.4646   48.3189 H       1  ZINC000572257265    0.0900
     29 H29         0.9490    0.8004   48.6726 H       1  ZINC000572257265    0.0900
     30 H30         3.8507   -0.0979   49.5017 H       1  ZINC000572257265    0.0800
     31 H31         3.6360    0.2139   51.2409 H       1  ZINC000572257265    0.0700
     32 H32         2.3435   -0.5851   50.3138 H       1  ZINC000572257265    0.0800
     33 H33         3.3076    3.3620   50.3128 H       1  ZINC000572257265    0.3800
     34 H34         0.5621    1.3969   50.8500 H       1  ZINC000572257265    0.0900
     35 H35         1.8917    1.6001   52.0158 H       1  ZINC000572257265    0.0800
     36 H36         1.7559    3.9089   50.3867 H       1  ZINC000572257265    0.4300
     37 H37        -2.0679    3.9021   53.7913 H       1  ZINC000572257265    0.1500
     38 H38        -4.2914    2.9101   53.4241 H       1  ZINC000572257265    0.1500
     39 H39        -6.6498    2.3525   49.4403 H       1  ZINC000572257265    0.4300
     40 H40        -5.9747    4.0856   51.7562 H       1  ZINC000572257265    0.1100
     41 H41        -6.2676    4.6887   50.1074 H       1  ZINC000572257265    0.1300
     42 H42        -3.0893    1.6577   49.5285 H       1  ZINC000572257265    0.1600
     43 H43        -0.8669    2.6531   49.8942 H       1  ZINC000572257265    0.1500
@<TRIPOS>BOND
     1     1     2    1
     2     1    25    1
     3     1    26    1
     4     1    27    1
     5     2     3    1
     6     3     4    1
     7     3    28    1
     8     3    29    1
     9     4     5    1
    10     4     6    1
    11     4     7    1
    12     5    30    1
    13     5    31    1
    14     5    32    1
    15     6    33    1
    16     7     8    1
    17     7    34    1
    18     7    35    1
    19     8     9   am
    20     8    36    1
    21     9    10    2
    22     9    11    2
    23     9    12    1
    24    12    24   ar
    25    12    13   ar
    26    13    14   ar
    27    13    37    1
    28    14    15   ar
    29    14    38    1
    30    15    16    1
    31    15    23   ar
    32    16    17    2
    33    16    18    2
    34    16    19   am
    35    19    20    1
    36    19    39    1
    37    20    21    1
    38    20    40    1
    39    20    41    1
    40    21    22    3
    41    23    24   ar
    42    23    42    1
    43    24    43    1
@<TRIPOS>SUBSTRUCTURE
     1 ZINC000572257265        1 TEMP              0 ****  ****    0 ROOT


##########                                Name:    ZINC000599797189
##########                DOCK_Rotatable_Bonds:                  13
##########                         Heavy_Atoms:                  23
##########                    Molecular_Weight:             329.313
##########                DOCK_Rotatable_Bonds:                  13
##########                       Formal_Charge:          0.00999949
##########                     HBond_Acceptors:                  11
##########                        HBond_Donors:                   3
##########                         Heavy_Atoms:                  23
##########                          Grid_Score:          -33.792606
##########                     Grid_vdw_energy:          -30.062544
##########                      Grid_es_energy:           -3.730063
##########           Internal_energy_repulsive:            7.978987

@<TRIPOS>MOLECULE
ZINC000599797189
 42 42 1 0 0
SMALL
USER_CHARGES


@<TRIPOS>ATOM
      1 C1         -5.1362    1.4949   50.8365 C.3     1  ZINC000599797189   -0.1500
      2 C2         -4.9875    2.9782   51.1814 C.3     1  ZINC000599797189    0.0600
      3 O3         -4.4987    3.1120   52.5421 O.3     1  ZINC000599797189   -0.3600
      4 C4         -3.1807    3.3114   52.6993 C.2     1  ZINC000599797189    0.4500
      5 O5         -2.3937    2.7442   51.9791 O.2     1  ZINC000599797189   -0.4800
      6 C6         -2.6825    4.2427   53.7743 C.3     1  ZINC000599797189    0.1500
      7 N7         -2.5855    3.5166   55.0430 N.pl3   1  ZINC000599797189   -0.3800
      8 C8         -3.5828    3.2778   55.9113 C.2     1  ZINC000599797189    0.2800
      9 N9         -3.0942    2.6003   56.9187 N.2     1  ZINC000599797189   -0.5100
     10 C10        -1.7885    2.3876   56.7298 C.2     1  ZINC000599797189    0.4700
     11 N11        -0.9412    1.6975   57.6030 N.am    1  ZINC000599797189   -0.6400
     12 C12        -0.6171    2.2372   58.7947 C.2     1  ZINC000599797189    0.7100
     13 O13        -1.0600    3.3247   59.1101 O.2     1  ZINC000599797189   -0.5300
     14 N14         0.1980    1.5715   59.6367 N.am    1  ZINC000599797189   -0.7300
     15 C15         0.5488    2.1574   60.9328 C.3     1  ZINC000599797189    0.1100
     16 C16        -0.4884    1.7419   61.9779 C.3     1  ZINC000599797189    0.1100
     17 H17        -1.4278    2.2593   61.7832 H       1  ZINC000599797189    0.1200
     18 O18        -0.6983    0.3302   61.9056 O.3     1  ZINC000599797189   -0.5400
     19 C19         0.0176    2.1113   63.3737 C.3     1  ZINC000599797189   -0.1500
     20 C20        -1.1310    2.0814   64.3488 C.2     1  ZINC000599797189    0.4600
     21 O21        -1.1022    2.7752   65.3377 O.2     1  ZINC000599797189   -0.4900
     22 O22        -2.1860    1.2841   64.1188 O.3     1  ZINC000599797189   -0.3600
     23 C23        -3.2532    1.3025   65.1032 C.3     1  ZINC000599797189    0.0400
     24 N24        -1.4332    2.9277   55.5886 N.2     1  ZINC000599797189   -0.3200
     25 H25        -5.5031    1.3944   49.8150 H       1  ZINC000599797189    0.0800
     26 H26        -4.1678    1.0025   50.9249 H       1  ZINC000599797189    0.0700
     27 H27        -5.8437    1.0312   51.5240 H       1  ZINC000599797189    0.0700
     28 H28        -4.2800    3.4419   50.4940 H       1  ZINC000599797189    0.0700
     29 H29        -5.9559    3.4706   51.0931 H       1  ZINC000599797189    0.0700
     30 H30        -1.6995    4.6239   53.4978 H       1  ZINC000599797189    0.1500
     31 H31        -3.3772    5.0752   53.8845 H       1  ZINC000599797189    0.1300
     32 H32        -4.6100    3.5910   55.7975 H       1  ZINC000599797189    0.2300
     33 H33        -0.5869    0.8303   57.3509 H       1  ZINC000599797189    0.4200
     34 H34         0.5522    0.7044   59.3846 H       1  ZINC000599797189    0.4000
     35 H35         1.5336    1.8028   61.2371 H       1  ZINC000599797189    0.0800
     36 H36         0.5642    3.2440   60.8481 H       1  ZINC000599797189    0.0800
     37 H37        -1.1166    0.0363   61.0848 H       1  ZINC000599797189    0.3800
     38 H38         0.7779    1.3954   63.6859 H       1  ZINC000599797189    0.1200
     39 H39         0.4486    3.1123   63.3508 H       1  ZINC000599797189    0.1200
     40 H40        -2.8594    0.9950   66.0719 H       1  ZINC000599797189    0.0600
     41 H41        -3.6596    2.3111   65.1798 H       1  ZINC000599797189    0.0600
     42 H42        -4.0420    0.6153   64.7968 H       1  ZINC000599797189    0.1000
@<TRIPOS>BOND
     1     1     2    1
     2     1    25    1
     3     1    26    1
     4     1    27    1
     5     2     3    1
     6     2    28    1
     7     2    29    1
     8     3     4    1
     9     4     5    2
    10     4     6    1
    11     6     7    1
    12     6    30    1
    13     6    31    1
    14     7    24    1
    15     7     8    1
    16     8     9    2
    17     8    32    1
    18     9    10    1
    19    10    11    1
    20    10    24    2
    21    11    12   am
    22    11    33    1
    23    12    13    2
    24    12    14   am
    25    14    15    1
    26    14    34    1
    27    15    16    1
    28    15    35    1
    29    15    36    1
    30    16    17    1
    31    16    18    1
    32    16    19    1
    33    18    37    1
    34    19    20    1
    35    19    38    1
    36    19    39    1
    37    20    21    2
    38    20    22    1
    39    22    23    1
    40    23    40    1
    41    23    41    1
    42    23    42    1
@<TRIPOS>SUBSTRUCTURE
     1 ZINC000599797189        1 TEMP              0 ****  ****    0 ROOT


##########                                Name:    ZINC000442010511
##########                DOCK_Rotatable_Bonds:                  11
##########                         Heavy_Atoms:                  31
##########                    Molecular_Weight:             422.481
##########                DOCK_Rotatable_Bonds:                  11
##########                       Formal_Charge:          -0.0200005
##########                     HBond_Acceptors:                   7
##########                        HBond_Donors:                   2
##########                         Heavy_Atoms:                  31
##########                          Grid_Score:          -33.774487
##########                     Grid_vdw_energy:          -33.832031
##########                      Grid_es_energy:            0.057545
##########           Internal_energy_repulsive:            8.191854

@<TRIPOS>MOLECULE
ZINC000442010511
 57 59 1 0 0
SMALL
USER_CHARGES


@<TRIPOS>ATOM
      1 C1         -9.7481   -0.0912   62.4798 C.3     1  ZINC000442010511   -0.1500
      2 C2         -8.4186    0.1749   61.7710 C.3     1  ZINC000442010511   -0.0500
      3 C3         -8.6149    0.0739   60.2803 C.2     1  ZINC000442010511    0.0000
      4 C4         -7.9553    0.7872   59.3500 C.2     1  ZINC000442010511   -0.2100
      5 C5         -8.4502    0.3753   58.0912 C.2     1  ZINC000442010511   -0.1900
      6 C6         -9.3825   -0.5649   58.3277 C.2     1  ZINC000442010511   -0.0300
      7 C7        -10.1834   -1.2949   57.2804 C.3     1  ZINC000442010511    0.2400
      8 H8         -9.6846   -2.2307   57.0284 H       1  ZINC000442010511    0.1400
      9 C9        -11.5823   -1.5927   57.8238 C.3     1  ZINC000442010511    0.0500
     10 O10       -12.2650   -2.4704   56.9263 O.3     1  ZINC000442010511   -0.3800
     11 C11       -13.5887   -2.8125   57.3423 C.3     1  ZINC000442010511    0.0300
     12 N12       -10.2929   -0.4615   56.0805 N.am    1  ZINC000442010511   -0.6900
     13 C13       -10.1922   -1.0222   54.8590 C.2     1  ZINC000442010511    0.5200
     14 O14       -10.0095   -2.2173   54.7532 O.2     1  ZINC000442010511   -0.5100
     15 C15       -10.3057   -0.1730   53.6359 C.2     1  ZINC000442010511    0.5100
     16 O16       -10.2527   -0.6834   52.5358 O.2     1  ZINC000442010511   -0.5000
     17 N17       -10.4668    1.1598   53.7534 N.am    1  ZINC000442010511   -0.6300
     18 C18       -10.5730    1.9551   52.6079 C.ar    1  ZINC000442010511    0.1200
     19 C19       -11.7246    1.9118   51.8352 C.ar    1  ZINC000442010511   -0.1000
     20 C20       -11.8270    2.6987   50.7036 C.ar    1  ZINC000442010511   -0.1300
     21 C21       -10.7843    3.5302   50.3385 C.ar    1  ZINC000442010511   -0.0900
     22 C22        -9.6332    3.5788   51.1028 C.ar    1  ZINC000442010511   -0.1700
     23 C23        -9.5243    2.7981   52.2422 C.ar    1  ZINC000442010511    0.1000
     24 O24        -8.3932    2.8448   52.9947 O.3     1  ZINC000442010511   -0.2600
     25 C25        -7.2016    2.6646   52.3672 C.ar    1  ZINC000442010511    0.0800
     26 C26        -6.8119    1.3945   51.9669 C.ar    1  ZINC000442010511   -0.1300
     27 C27        -5.6001    1.2141   51.3288 C.ar    1  ZINC000442010511   -0.1100
     28 C28        -4.7754    2.2979   51.0895 C.ar    1  ZINC000442010511   -0.0800
     29 C29        -3.4537    2.0980   50.3936 C.3     1  ZINC000442010511   -0.1200
     30 C30        -5.1615    3.5647   51.4869 C.ar    1  ZINC000442010511   -0.1100
     31 C31        -6.3747    3.7513   52.1207 C.ar    1  ZINC000442010511   -0.1100
     32 O32        -9.4740   -0.7475   59.6551 O.3     1  ZINC000442010511   -0.1600
     33 H33       -10.4844    0.6459   62.1595 H       1  ZINC000442010511    0.0600
     34 H34       -10.1010   -1.0909   62.2266 H       1  ZINC000442010511    0.0600
     35 H35        -9.6061   -0.0182   63.5580 H       1  ZINC000442010511    0.0700
     36 H36        -8.0656    1.1746   62.0242 H       1  ZINC000442010511    0.0900
     37 H37        -7.6822   -0.5622   62.0913 H       1  ZINC000442010511    0.0800
     38 H38        -7.1942    1.5320   59.5299 H       1  ZINC000442010511    0.1500
     39 H39        -8.1395    0.7451   57.1252 H       1  ZINC000442010511    0.1500
     40 H40       -11.4989   -2.0662   58.8020 H       1  ZINC000442010511    0.0700
     41 H41       -12.1415   -0.6617   57.9172 H       1  ZINC000442010511    0.0700
     42 H42       -14.0389   -3.4809   56.6084 H       1  ZINC000442010511    0.0900
     43 H43       -13.5477   -3.3108   58.3108 H       1  ZINC000442010511    0.0400
     44 H44       -14.1890   -1.9065   57.4250 H       1  ZINC000442010511    0.0400
     45 H45       -10.4377    0.4939   56.1651 H       1  ZINC000442010511    0.4200
     46 H46       -10.5090    1.5676   54.6325 H       1  ZINC000442010511    0.4300
     47 H47       -12.5407    1.2632   52.1176 H       1  ZINC000442010511    0.1600
     48 H48       -12.7238    2.6639   50.1028 H       1  ZINC000442010511    0.1300
     49 H49       -10.8692    4.1431   49.4534 H       1  ZINC000442010511    0.1300
     50 H50        -8.8205    4.2288   50.8141 H       1  ZINC000442010511    0.1300
     51 H51        -7.4554    0.5475   52.1543 H       1  ZINC000442010511    0.1300
     52 H52        -5.2963    0.2257   51.0170 H       1  ZINC000442010511    0.1300
     53 H53        -3.5915    2.1964   49.3168 H       1  ZINC000442010511    0.0700
     54 H54        -2.7438    2.8495   50.7392 H       1  ZINC000442010511    0.0700
     55 H55        -3.0698    1.1036   50.6214 H       1  ZINC000442010511    0.0700
     56 H56        -4.5154    4.4094   51.2988 H       1  ZINC000442010511    0.1300
     57 H57        -6.6758    4.7410   52.4308 H       1  ZINC000442010511    0.1300
@<TRIPOS>BOND
     1     1     2    1
     2     1    33    1
     3     1    34    1
     4     1    35    1
     5     2     3    1
     6     2    36    1
     7     2    37    1
     8     3    32    1
     9     3     4    2
    10     4     5    1
    11     4    38    1
    12     5     6    2
    13     5    39    1
    14     6     7    1
    15     6    32    1
    16     7     8    1
    17     7     9    1
    18     7    12    1
    19     9    10    1
    20     9    40    1
    21     9    41    1
    22    10    11    1
    23    11    42    1
    24    11    43    1
    25    11    44    1
    26    12    13   am
    27    12    45    1
    28    13    14    2
    29    13    15    1
    30    15    16    2
    31    15    17   am
    32    17    18    1
    33    17    46    1
    34    18    23   ar
    35    18    19   ar
    36    19    20   ar
    37    19    47    1
    38    20    21   ar
    39    20    48    1
    40    21    22   ar
    41    21    49    1
    42    22    23   ar
    43    22    50    1
    44    23    24    1
    45    24    25    1
    46    25    31   ar
    47    25    26   ar
    48    26    27   ar
    49    26    51    1
    50    27    28   ar
    51    27    52    1
    52    28    29    1
    53    28    30   ar
    54    29    53    1
    55    29    54    1
    56    29    55    1
    57    30    31   ar
    58    30    56    1
    59    31    57    1
@<TRIPOS>SUBSTRUCTURE
     1 ZINC000442010511        1 TEMP              0 ****  ****    0 ROOT


##########                                Name:    ZINC000471198073
##########                DOCK_Rotatable_Bonds:                  12
##########                         Heavy_Atoms:                  30
##########                    Molecular_Weight:             409.528
##########                DOCK_Rotatable_Bonds:                  12
##########                       Formal_Charge:          -0.0399998
##########                     HBond_Acceptors:                   6
##########                        HBond_Donors:                   3
##########                         Heavy_Atoms:                  30
##########                          Grid_Score:          -33.681908
##########                     Grid_vdw_energy:          -33.517078
##########                      Grid_es_energy:           -0.164830
##########           Internal_energy_repulsive:           20.013517

@<TRIPOS>MOLECULE
ZINC000471198073
 61 62 1 0 0
SMALL
USER_CHARGES


@<TRIPOS>ATOM
      1 C1         -4.4541    3.3499   51.9972 C.3     1  ZINC000471198073   -0.1400
      2 C2         -5.5639    2.8291   51.0818 C.3     1  ZINC000471198073   -0.1100
      3 C3         -5.0571    1.6100   50.3085 C.3     1  ZINC000471198073   -0.1500
      4 C4         -6.7577    2.4359   51.9131 C.2     1  ZINC000471198073    0.5200
      5 O5         -7.8401    2.9380   51.6956 O.2     1  ZINC000471198073   -0.5200
      6 N6         -6.6227    1.5261   52.8983 N.am    1  ZINC000471198073   -0.6700
      7 C7         -7.7312    1.1610   53.6702 C.ar    1  ZINC000471198073    0.1600
      8 C8         -8.5288    0.0928   53.2800 C.ar    1  ZINC000471198073   -0.1500
      9 C9         -9.6236   -0.2688   54.0418 C.ar    1  ZINC000471198073   -0.0800
     10 C10        -9.9286    0.4300   55.1934 C.ar    1  ZINC000471198073   -0.1300
     11 C11        -9.1349    1.5002   55.5894 C.ar    1  ZINC000471198073    0.1500
     12 N12        -9.4442    2.2072   56.7542 N.am    1  ZINC000471198073   -0.6400
     13 C13        -9.0729    1.7220   57.9556 C.2     1  ZINC000471198073    0.5100
     14 O14        -8.4698    0.6710   58.0256 O.2     1  ZINC000471198073   -0.5000
     15 C15        -9.4035    2.4776   59.2007 C.2     1  ZINC000471198073    0.5100
     16 O16        -9.6384    3.6670   59.1444 O.2     1  ZINC000471198073   -0.5100
     17 N17        -9.4408    1.8388   60.3869 N.am    1  ZINC000471198073   -0.7000
     18 C18        -9.7634    2.5803   61.6084 C.3     1  ZINC000471198073    0.1200
     19 C19        -9.8259    1.6120   62.7914 C.3     1  ZINC000471198073   -0.0900
     20 H20       -10.4020    0.7306   62.5095 H       1  ZINC000471198073    0.0800
     21 C21        -8.4076    1.1910   63.1814 C.3     1  ZINC000471198073   -0.0800
     22 C22        -8.4454    0.4570   64.4970 C.ar    1  ZINC000471198073   -0.0800
     23 C23        -9.1717   -0.7132   64.6150 C.ar    1  ZINC000471198073   -0.1200
     24 C24        -9.2064   -1.3865   65.8218 C.ar    1  ZINC000471198073   -0.1200
     25 C25        -8.5145   -0.8897   66.9106 C.ar    1  ZINC000471198073   -0.1200
     26 C26        -7.7874    0.2801   66.7924 C.ar    1  ZINC000471198073   -0.1200
     27 C27        -7.7492    0.9510   65.5844 C.ar    1  ZINC000471198073   -0.1200
     28 C28       -10.4981    2.3018   63.9800 C.3     1  ZINC000471198073   -0.1000
     29 C29        -9.9351    3.7161   64.1340 C.3     1  ZINC000471198073   -0.1600
     30 C30       -12.0073    2.3771   63.7394 C.3     1  ZINC000471198073   -0.1700
     31 C31        -8.0315    1.8621   54.8293 C.ar    1  ZINC000471198073   -0.1400
     32 H32        -3.5907    3.6343   51.3959 H       1  ZINC000471198073    0.0700
     33 H33        -4.8152    4.2184   52.5481 H       1  ZINC000471198073    0.0600
     34 H34        -4.1659    2.5680   52.6998 H       1  ZINC000471198073    0.0600
     35 H35        -5.8521    3.6110   50.3792 H       1  ZINC000471198073    0.1000
     36 H36        -4.7689    0.8281   51.0111 H       1  ZINC000471198073    0.0600
     37 H37        -5.8478    1.2390   49.6563 H       1  ZINC000471198073    0.0600
     38 H38        -4.1936    1.8944   49.7072 H       1  ZINC000471198073    0.0700
     39 H39        -5.7571    1.1246   53.0723 H       1  ZINC000471198073    0.4100
     40 H40        -8.2932   -0.4555   52.3798 H       1  ZINC000471198073    0.1300
     41 H41       -10.2422   -1.0996   53.7359 H       1  ZINC000471198073    0.1300
     42 H42       -10.7849    0.1449   55.7867 H       1  ZINC000471198073    0.1400
     43 H43        -9.9261    3.0472   56.6983 H       1  ZINC000471198073    0.4200
     44 H44        -9.2542    0.8879   60.4316 H       1  ZINC000471198073    0.4200
     45 H45        -8.9935    3.3296   61.7925 H       1  ZINC000471198073    0.0700
     46 H46       -10.7286    3.0725   61.4905 H       1  ZINC000471198073    0.0800
     47 H47        -7.9983    0.5365   62.4118 H       1  ZINC000471198073    0.0800
     48 H48        -7.7792    2.0765   63.2772 H       1  ZINC000471198073    0.0800
     49 H49        -9.7124   -1.1013   63.7644 H       1  ZINC000471198073    0.1200
     50 H50        -9.7745   -2.3003   65.9142 H       1  ZINC000471198073    0.1200
     51 H51        -8.5421   -1.4152   67.8536 H       1  ZINC000471198073    0.1200
     52 H52        -7.2471    0.6683   67.6430 H       1  ZINC000471198073    0.1200
     53 H53        -7.1812    1.8649   65.4919 H       1  ZINC000471198073    0.1200
     54 H54       -10.3031    1.7322   64.8887 H       1  ZINC000471198073    0.0800
     55 H55       -10.2152    4.3151   63.2675 H       1  ZINC000471198073    0.0600
     56 H56       -10.3405    4.1721   65.0373 H       1  ZINC000471198073    0.0600
     57 H57        -8.8487    3.6688   64.2072 H       1  ZINC000471198073    0.0600
     58 H58       -12.3876    1.3832   63.5037 H       1  ZINC000471198073    0.0600
     59 H59       -12.5000    2.7514   64.6367 H       1  ZINC000471198073    0.0600
     60 H60       -12.2091    3.0504   62.9063 H       1  ZINC000471198073    0.0700
     61 H61        -7.4131    2.6933   55.1347 H       1  ZINC000471198073    0.1400
@<TRIPOS>BOND
     1     1     2    1
     2     1    32    1
     3     1    33    1
     4     1    34    1
     5     2     3    1
     6     2     4    1
     7     2    35    1
     8     3    36    1
     9     3    37    1
    10     3    38    1
    11     4     5    2
    12     4     6   am
    13     6     7    1
    14     6    39    1
    15     7    31   ar
    16     7     8   ar
    17     8     9   ar
    18     8    40    1
    19     9    10   ar
    20     9    41    1
    21    10    11   ar
    22    10    42    1
    23    11    12    1
    24    11    31   ar
    25    12    13   am
    26    12    43    1
    27    13    14    2
    28    13    15    1
    29    15    16    2
    30    15    17   am
    31    17    18    1
    32    17    44    1
    33    18    19    1
    34    18    45    1
    35    18    46    1
    36    19    20    1
    37    19    21    1
    38    19    28    1
    39    21    22    1
    40    21    47    1
    41    21    48    1
    42    22    27   ar
    43    22    23   ar
    44    23    24   ar
    45    23    49    1
    46    24    25   ar
    47    24    50    1
    48    25    26   ar
    49    25    51    1
    50    26    27   ar
    51    26    52    1
    52    27    53    1
    53    28    29    1
    54    28    30    1
    55    28    54    1
    56    29    55    1
    57    29    56    1
    58    29    57    1
    59    30    58    1
    60    30    59    1
    61    30    60    1
    62    31    61    1
@<TRIPOS>SUBSTRUCTURE
     1 ZINC000471198073        1 TEMP              0 ****  ****    0 ROOT


##########                                Name:    ZINC000824084043
##########                DOCK_Rotatable_Bonds:                  11
##########                         Heavy_Atoms:                  27
##########                    Molecular_Weight:             382.547
##########                DOCK_Rotatable_Bonds:                  11
##########                       Formal_Charge:        -6.85453e-07
##########                     HBond_Acceptors:                   7
##########                        HBond_Donors:                   3
##########                         Heavy_Atoms:                  27
##########                          Grid_Score:          -33.627808
##########                     Grid_vdw_energy:          -25.409019
##########                      Grid_es_energy:           -8.218789
##########           Internal_energy_repulsive:           16.470417

@<TRIPOS>MOLECULE
ZINC000824084043
 65 66 1 0 0
SMALL
USER_CHARGES


@<TRIPOS>ATOM
      1 C1        -17.8795   -1.9496   57.4261 C.3     1  ZINC000824084043   -0.1400
      2 C2        -17.0114   -0.7960   57.9324 C.3     1  ZINC000824084043   -0.1000
      3 C3        -17.9028    0.2709   58.5710 C.3     1  ZINC000824084043   -0.1300
      4 C4        -16.0203   -1.3219   58.9726 C.3     1  ZINC000824084043    0.1700
      5 H5        -16.1106   -2.4057   59.0451 H       1  ZINC000824084043    0.0700
      6 C6        -14.5959   -0.9559   58.5508 C.3     1  ZINC000824084043   -0.1400
      7 C7        -14.0835   -1.9836   57.5397 C.3     1  ZINC000824084043    0.1300
      8 N8        -12.6668   -1.7325   57.2635 N.am    1  ZINC000824084043   -0.6200
      9 C9        -11.6379   -2.5474   57.9144 C.3     1  ZINC000824084043    0.0800
     10 C10       -12.3101   -0.7518   56.4106 C.2     1  ZINC000824084043    0.7000
     11 O11       -13.1639   -0.0764   55.8692 O.2     1  ZINC000824084043   -0.5800
     12 N12       -11.0067   -0.5197   56.1578 N.am    1  ZINC000824084043   -0.7500
     13 C13       -10.6188    0.5474   55.2321 C.3     1  ZINC000824084043    0.1600
     14 C14        -9.2489    1.1014   55.6344 C.3     1  ZINC000824084043   -0.1600
     15 C15        -8.8143    2.1596   54.6181 C.3     1  ZINC000824084043   -0.0100
     16 N16        -8.7264    1.5546   53.2836 N.4     1  ZINC000824084043   -0.3800
     17 H17        -8.0872    0.7743   53.3106 H       1  ZINC000824084043    0.4200
     18 C18        -8.2359    2.5545   52.3257 C.3     1  ZINC000824084043    0.0000
     19 C19        -6.7071    2.5113   52.2813 C.3     1  ZINC000824084043   -0.1200
     20 C20        -6.2116    1.0581   52.0772 C.3     1  ZINC000824084043   -0.1400
     21 C21        -4.8040    1.2601   51.4633 C.3     1  ZINC000824084043   -0.1200
     22 C22        -4.9713    2.4722   50.5237 C.3     1  ZINC000824084043   -0.1300
     23 C23        -6.1814    3.2678   51.0439 C.3     1  ZINC000824084043   -0.1100
     24 C24       -10.0515    1.0853   52.8612 C.3     1  ZINC000824084043    0.0000
     25 C25       -10.5337   -0.0142   53.8099 C.3     1  ZINC000824084043   -0.1600
     26 N26       -16.3139   -0.7193   60.2753 N.am    1  ZINC000824084043   -0.7800
     27 C27       -15.9572   -1.3562   61.4082 C.2     1  ZINC000824084043    0.6600
     28 O28       -16.2010   -0.8525   62.4957 O.co2   1  ZINC000824084043   -0.7200
     29 O29       -15.3897   -2.4381   61.3487 O.co2   1  ZINC000824084043   -0.7300
     30 H30       -18.5855   -1.5749   56.6850 H       1  ZINC000824084043    0.0500
     31 H31       -17.2444   -2.7098   56.9711 H       1  ZINC000824084043    0.0500
     32 H32       -18.4270   -2.3861   58.2614 H       1  ZINC000824084043    0.0500
     33 H33       -16.4638   -0.3595   57.0970 H       1  ZINC000824084043    0.0500
     34 H34       -18.4503   -0.1655   59.4063 H       1  ZINC000824084043    0.0600
     35 H35       -17.2843    1.0929   58.9316 H       1  ZINC000824084043    0.0700
     36 H36       -18.6088    0.6457   57.8300 H       1  ZINC000824084043    0.0300
     37 H37       -14.5950    0.0341   58.0948 H       1  ZINC000824084043    0.0700
     38 H38       -13.9470   -0.9531   59.4265 H       1  ZINC000824084043    0.0600
     39 H39       -14.2015   -2.9866   57.9496 H       1  ZINC000824084043    0.0900
     40 H40       -14.6544   -1.8993   56.6150 H       1  ZINC000824084043    0.0900
     41 H41       -11.4169   -3.4164   57.2947 H       1  ZINC000824084043    0.0600
     42 H42       -10.7329   -1.9541   58.0444 H       1  ZINC000824084043    0.0600
     43 H43       -11.9987   -2.8779   58.8884 H       1  ZINC000824084043    0.0800
     44 H44       -10.3255   -1.0593   56.5888 H       1  ZINC000824084043    0.4000
     45 H45       -11.3601    1.3458   55.2650 H       1  ZINC000824084043    0.1100
     46 H46        -9.3154    1.5529   56.6242 H       1  ZINC000824084043    0.1200
     47 H47        -8.5195    0.2916   55.6512 H       1  ZINC000824084043    0.0900
     48 H48        -9.5442    2.9689   54.6023 H       1  ZINC000824084043    0.1300
     49 H49        -7.8394    2.5562   54.9016 H       1  ZINC000824084043    0.1300
     50 H50        -8.6345    2.3349   51.3352 H       1  ZINC000824084043    0.1300
     51 H51        -8.5625    3.5467   52.6369 H       1  ZINC000824084043    0.1300
     52 H52        -6.2878    2.9348   53.1940 H       1  ZINC000824084043    0.1000
     53 H53        -6.1456    0.5349   53.0310 H       1  ZINC000824084043    0.0700
     54 H54        -6.8614    0.5220   51.3853 H       1  ZINC000824084043    0.0800
     55 H55        -4.0755    1.4800   52.2437 H       1  ZINC000824084043    0.0700
     56 H56        -4.5042    0.3778   50.8979 H       1  ZINC000824084043    0.0800
     57 H57        -4.0759    3.0932   50.5524 H       1  ZINC000824084043    0.0700
     58 H58        -5.1579    2.1321   49.5052 H       1  ZINC000824084043    0.0700
     59 H59        -6.9553    3.3137   50.2777 H       1  ZINC000824084043    0.0700
     60 H60        -5.8733    4.2748   51.3250 H       1  ZINC000824084043    0.0800
     61 H61       -10.7550    1.9176   52.8828 H       1  ZINC000824084043    0.1300
     62 H62        -9.9900    0.6890   51.8477 H       1  ZINC000824084043    0.1300
     63 H63        -9.8310   -0.8471   53.7888 H       1  ZINC000824084043    0.0900
     64 H64       -11.5185   -0.3600   53.4956 H       1  ZINC000824084043    0.1200
     65 H65       -16.7652    0.1380   60.3224 H       1  ZINC000824084043    0.3600
@<TRIPOS>BOND
     1     1     2    1
     2     1    30    1
     3     1    31    1
     4     1    32    1
     5     2     3    1
     6     2     4    1
     7     2    33    1
     8     3    34    1
     9     3    35    1
    10     3    36    1
    11     4     5    1
    12     4     6    1
    13     4    26    1
    14     6     7    1
    15     6    37    1
    16     6    38    1
    17     7     8    1
    18     7    39    1
    19     7    40    1
    20     8     9    1
    21     8    10   am
    22     9    41    1
    23     9    42    1
    24     9    43    1
    25    10    11    2
    26    10    12   am
    27    12    13    1
    28    12    44    1
    29    13    25    1
    30    13    14    1
    31    13    45    1
    32    14    15    1
    33    14    46    1
    34    14    47    1
    35    15    16    1
    36    15    48    1
    37    15    49    1
    38    16    17    1
    39    16    18    1
    40    16    24    1
    41    18    19    1
    42    18    50    1
    43    18    51    1
    44    19    23    1
    45    19    20    1
    46    19    52    1
    47    20    21    1
    48    20    53    1
    49    20    54    1
    50    21    22    1
    51    21    55    1
    52    21    56    1
    53    22    23    1
    54    22    57    1
    55    22    58    1
    56    23    59    1
    57    23    60    1
    58    24    25    1
    59    24    61    1
    60    24    62    1
    61    25    63    1
    62    25    64    1
    63    26    27   am
    64    26    65    1
    65    27    28   ar
    66    27    29   ar
@<TRIPOS>SUBSTRUCTURE
     1 ZINC000824084043        1 TEMP              0 ****  ****    0 ROOT


##########                                Name:    ZINC000124554441
##########                DOCK_Rotatable_Bonds:                   9
##########                         Heavy_Atoms:                  26
##########                    Molecular_Weight:             375.898
##########                DOCK_Rotatable_Bonds:                   9
##########                       Formal_Charge:         -0.00999991
##########                     HBond_Acceptors:                   6
##########                        HBond_Donors:                   1
##########                         Heavy_Atoms:                  26
##########                          Grid_Score:          -33.605129
##########                     Grid_vdw_energy:          -32.374001
##########                      Grid_es_energy:           -1.231129
##########           Internal_energy_repulsive:           12.349516

@<TRIPOS>MOLECULE
ZINC000124554441
 52 53 1 0 0
SMALL
USER_CHARGES


@<TRIPOS>ATOM
      1 C1        -14.6874   -0.6859   48.1000 C.3     1  ZINC000124554441   -0.1500
      2 C2        -13.3426   -0.1257   48.5675 C.3     1  ZINC000124554441   -0.1300
      3 C3        -13.1907    1.3145   48.0740 C.3     1  ZINC000124554441   -0.1200
      4 C4        -13.9689    2.2546   48.9968 C.3     1  ZINC000124554441   -0.1200
      5 C5        -13.7689    3.7004   48.5381 C.3     1  ZINC000124554441   -0.1300
      6 C6        -13.0400    4.4858   49.6302 C.3     1  ZINC000124554441    0.1200
      7 N7        -11.5929    4.3540   49.4433 N.am    1  ZINC000124554441   -0.7300
      8 C8        -10.7683    4.4062   50.5081 C.2     1  ZINC000124554441    0.5200
      9 O9        -11.2241    4.5638   51.6209 O.2     1  ZINC000124554441   -0.5300
     10 C10        -9.2799    4.2688   50.3160 C.3     1  ZINC000124554441   -0.1200
     11 H11        -9.0811    3.5789   49.4959 H       1  ZINC000124554441    0.1000
     12 C12        -8.6786    5.6376   49.9892 C.3     1  ZINC000124554441   -0.1000
     13 C13        -7.1721    5.4937   49.7616 C.3     1  ZINC000124554441   -0.1400
     14 C14        -6.5140    4.9698   51.0420 C.3     1  ZINC000124554441    0.0900
     15 N15        -7.1851    3.7260   51.4437 N.am    1  ZINC000124554441   -0.6000
     16 C16        -6.4745    2.6020   51.6626 C.2     1  ZINC000124554441    0.5600
     17 O17        -7.0414    1.5795   51.9946 O.2     1  ZINC000124554441   -0.5200
     18 C18        -5.0044    2.6128   51.4989 C.ar    1  ZINC000124554441   -0.0900
     19 C19        -4.4347    2.2281   50.2836 C.ar    1  ZINC000124554441   -0.0900
     20 C20        -3.0661    2.2377   50.1299 C.ar    1  ZINC000124554441   -0.0600
     21 C21        -2.2469    2.6320   51.1901 C.ar    1  ZINC000124554441    0.0100
     22 C22        -0.8239    2.6421   51.0305 C.1     1  ZINC000124554441    0.2400
     23 N23         0.3051    2.6501   50.9037 N.1     1  ZINC000124554441   -0.3800
     24 C24        -2.8169    3.0174   52.4073 C.ar    1  ZINC000124554441    0.0000
     25 Cl25       -1.7999    3.5082   53.7258 Cl      1  ZINC000124554441   -0.0400
     26 C26        -4.1874    3.0131   52.5578 C.ar    1  ZINC000124554441   -0.0600
     27 C27        -8.6459    3.7302   51.6024 C.3     1  ZINC000124554441    0.1200
     28 H28       -15.4954   -0.0761   48.5044 H       1  ZINC000124554441    0.0500
     29 H29       -14.7294   -0.6686   47.0110 H       1  ZINC000124554441    0.0500
     30 H30       -14.7957   -1.7119   48.4515 H       1  ZINC000124554441    0.0500
     31 H31       -13.3006   -0.1429   49.6565 H       1  ZINC000124554441    0.0600
     32 H32       -12.5347   -0.7355   48.1630 H       1  ZINC000124554441    0.0600
     33 H33       -12.1364    1.5910   48.0789 H       1  ZINC000124554441    0.0600
     34 H34       -13.5825    1.3943   47.0599 H       1  ZINC000124554441    0.0600
     35 H35       -15.0293    2.0049   48.9594 H       1  ZINC000124554441    0.0700
     36 H36       -13.6054    2.1439   50.0184 H       1  ZINC000124554441    0.0700
     37 H37       -13.1751    3.7128   47.6241 H       1  ZINC000124554441    0.0700
     38 H38       -14.7392    4.1586   48.3473 H       1  ZINC000124554441    0.0700
     39 H39       -13.3198    5.5375   49.5697 H       1  ZINC000124554441    0.0700
     40 H40       -13.3174    4.0917   50.6079 H       1  ZINC000124554441    0.0700
     41 H41       -11.2282    4.2291   48.5532 H       1  ZINC000124554441    0.4000
     42 H42        -9.1459    6.0337   49.0876 H       1  ZINC000124554441    0.0800
     43 H43        -8.8567    6.3203   50.8201 H       1  ZINC000124554441    0.0800
     44 H44        -6.9927    4.7921   48.9469 H       1  ZINC000124554441    0.0700
     45 H45        -6.7483    6.4649   49.5060 H       1  ZINC000124554441    0.0900
     46 H46        -5.4585    4.7716   50.8555 H       1  ZINC000124554441    0.1000
     47 H47        -6.6144    5.7115   51.8342 H       1  ZINC000124554441    0.0800
     48 H48        -5.0677    1.9224   49.4637 H       1  ZINC000124554441    0.1500
     49 H49        -2.6263    1.9400   49.1896 H       1  ZINC000124554441    0.1500
     50 H50        -4.6284    3.3106   53.4976 H       1  ZINC000124554441    0.1500
     51 H51        -8.9206    4.3709   52.4403 H       1  ZINC000124554441    0.0800
     52 H52        -8.9965    2.7145   51.7860 H       1  ZINC000124554441    0.1000
@<TRIPOS>BOND
     1     1     2    1
     2     1    28    1
     3     1    29    1
     4     1    30    1
     5     2     3    1
     6     2    31    1
     7     2    32    1
     8     3     4    1
     9     3    33    1
    10     3    34    1
    11     4     5    1
    12     4    35    1
    13     4    36    1
    14     5     6    1
    15     5    37    1
    16     5    38    1
    17     6     7    1
    18     6    39    1
    19     6    40    1
    20     7     8   am
    21     7    41    1
    22     8     9    2
    23     8    10    1
    24    10    11    1
    25    10    27    1
    26    10    12    1
    27    12    13    1
    28    12    42    1
    29    12    43    1
    30    13    14    1
    31    13    44    1
    32    13    45    1
    33    14    15    1
    34    14    46    1
    35    14    47    1
    36    15    16   am
    37    15    27    1
    38    16    17    2
    39    16    18    1
    40    18    26   ar
    41    18    19   ar
    42    19    20   ar
    43    19    48    1
    44    20    21   ar
    45    20    49    1
    46    21    22    1
    47    21    24   ar
    48    22    23    3
    49    24    25    1
    50    24    26   ar
    51    26    50    1
    52    27    51    1
    53    27    52    1
@<TRIPOS>SUBSTRUCTURE
     1 ZINC000124554441        1 TEMP              0 ****  ****    0 ROOT


##########                                Name:    ZINC000442864105
##########                DOCK_Rotatable_Bonds:                   7
##########                         Heavy_Atoms:                  30
##########                    Molecular_Weight:              414.39
##########                DOCK_Rotatable_Bonds:                   7
##########                       Formal_Charge:           0.0200001
##########                     HBond_Acceptors:                  10
##########                        HBond_Donors:                   2
##########                         Heavy_Atoms:                  30
##########                          Grid_Score:          -33.593948
##########                     Grid_vdw_energy:          -33.807289
##########                      Grid_es_energy:            0.213343
##########           Internal_energy_repulsive:           10.149652

@<TRIPOS>MOLECULE
ZINC000442864105
 47 50 1 0 0
SMALL
USER_CHARGES


@<TRIPOS>ATOM
      1 C1          0.0196    1.0608   47.8372 C.3     1  ZINC000442864105    0.0800
      2 N2          0.3421    1.8855   49.0043 N.pl3   1  ZINC000442864105   -0.4900
      3 C3          1.6015    2.2960   49.3543 C.2     1  ZINC000442864105    0.0300
      4 C4          1.5471    3.0353   50.4728 C.2     1  ZINC000442864105   -0.1900
      5 C5          0.1387    3.1047   50.8729 C.ar    1  ZINC000442864105   -0.1600
      6 C6         -0.5387    3.7157   51.9300 C.ar    1  ZINC000442864105   -0.0200
      7 C7         -1.8950    3.5923   52.0305 C.ar    1  ZINC000442864105   -0.2100
      8 C8         -2.6100    2.8599   51.0841 C.ar    1  ZINC000442864105    0.2400
      9 N9         -3.9981    2.7432   51.2012 N.pl3   1  ZINC000442864105   -0.7400
     10 C10        -4.6421    1.4409   51.0135 C.3     1  ZINC000442864105    0.1100
     11 C11        -5.9849    1.4413   51.6975 C.2     1  ZINC000442864105    0.5100
     12 O12        -6.5962    0.4026   51.8344 O.2     1  ZINC000442864105   -0.5100
     13 N13        -6.5067    2.5958   52.1573 N.am    1  ZINC000442864105   -0.6600
     14 C14        -7.7539    2.5961   52.7927 C.ar    1  ZINC000442864105    0.1600
     15 C15        -7.8932    2.0317   54.0521 C.ar    1  ZINC000442864105   -0.0700
     16 C16        -9.1256    2.0332   54.6775 C.ar    1  ZINC000442864105   -0.1600
     17 C17        -9.2746    1.4196   56.0458 C.3     1  ZINC000442864105    0.5100
     18 F18        -8.0250    1.3691   56.6728 F       1  ZINC000442864105   -0.1700
     19 F19       -10.1500    2.1962   56.8123 F       1  ZINC000442864105   -0.1700
     20 F20        -9.7870    0.1236   55.9223 F       1  ZINC000442864105   -0.1700
     21 C21       -10.2225    2.5967   54.0515 C.ar    1  ZINC000442864105   -0.0600
     22 C22       -10.0930    3.1608   52.7964 C.ar    1  ZINC000442864105   -0.1100
     23 C23        -8.8591    3.1690   52.1638 C.ar    1  ZINC000442864105    0.1500
     24 N24        -8.7254    3.7409   50.8902 N.pl3   1  ZINC000442864105   -0.3300
     25 C25        -9.6446    3.7436   49.9056 C.2     1  ZINC000442864105    0.2800
     26 N26        -9.1369    4.3770   48.8790 N.2     1  ZINC000442864105   -0.5300
     27 C27        -7.9037    4.7908   49.1677 C.2     1  ZINC000442864105    0.2300
     28 N28        -7.6088    4.4303   50.3895 N.2     1  ZINC000442864105   -0.3400
     29 C29        -1.9558    2.2477   50.0289 C.ar    1  ZINC000442864105   -0.2100
     30 C30        -0.5759    2.3686   49.9100 C.ar    1  ZINC000442864105    0.1500
     31 H31        -0.1743    1.7050   46.9795 H       1  ZINC000442864105    0.0700
     32 H32         0.8590    0.4022   47.6144 H       1  ZINC000442864105    0.0800
     33 H33        -0.8660    0.4618   48.0492 H       1  ZINC000442864105    0.0800
     34 H34         2.5042    2.0597   48.8106 H       1  ZINC000442864105    0.1700
     35 H35         2.3828    3.4922   50.9820 H       1  ZINC000442864105    0.1400
     36 H36         0.0090    4.2843   52.6671 H       1  ZINC000442864105    0.1200
     37 H37        -2.4174    4.0651   52.8490 H       1  ZINC000442864105    0.1200
     38 H38        -4.5348    3.5246   51.4069 H       1  ZINC000442864105    0.4100
     39 H39        -4.7770    1.2524   49.9484 H       1  ZINC000442864105    0.1000
     40 H40        -4.0153    0.6601   51.4441 H       1  ZINC000442864105    0.1000
     41 H41        -6.0179    3.4264   52.0479 H       1  ZINC000442864105    0.4300
     42 H42        -7.0386    1.5909   54.5438 H       1  ZINC000442864105    0.1700
     43 H43       -11.1833    2.5955   54.5447 H       1  ZINC000442864105    0.1500
     44 H44       -10.9518    3.5996   52.3104 H       1  ZINC000442864105    0.1500
     45 H45       -10.6281    3.3001   49.9545 H       1  ZINC000442864105    0.2300
     46 H46        -7.2543    5.3394   48.5016 H       1  ZINC000442864105    0.2300
     47 H47        -2.5155    1.6817   49.2989 H       1  ZINC000442864105    0.1200
@<TRIPOS>BOND
     1     1     2    1
     2     1    31    1
     3     1    32    1
     4     1    33    1
     5     2    30    1
     6     2     3    1
     7     3     4    2
     8     3    34    1
     9     4     5    1
    10     4    35    1
    11     5    30   ar
    12     5     6   ar
    13     6     7   ar
    14     6    36    1
    15     7     8   ar
    16     7    37    1
    17     8     9    1
    18     8    29   ar
    19     9    10    1
    20     9    38    1
    21    10    11    1
    22    10    39    1
    23    10    40    1
    24    11    12    2
    25    11    13   am
    26    13    14    1
    27    13    41    1
    28    14    23   ar
    29    14    15   ar
    30    15    16   ar
    31    15    42    1
    32    16    17    1
    33    16    21   ar
    34    17    18    1
    35    17    19    1
    36    17    20    1
    37    21    22   ar
    38    21    43    1
    39    22    23   ar
    40    22    44    1
    41    23    24    1
    42    24    28    1
    43    24    25    1
    44    25    26    2
    45    25    45    1
    46    26    27    1
    47    27    28    2
    48    27    46    1
    49    29    30   ar
    50    29    47    1
@<TRIPOS>SUBSTRUCTURE
     1 ZINC000442864105        1 TEMP              0 ****  ****    0 ROOT


##########                                Name:    ZINC001004075025
##########                DOCK_Rotatable_Bonds:                   8
##########                         Heavy_Atoms:                  25
##########                    Molecular_Weight:              349.43
##########                DOCK_Rotatable_Bonds:                   8
##########                       Formal_Charge:         -0.00999999
##########                     HBond_Acceptors:                   7
##########                        HBond_Donors:                   1
##########                         Heavy_Atoms:                  25
##########                          Grid_Score:          -33.545719
##########                     Grid_vdw_energy:          -31.691143
##########                      Grid_es_energy:           -1.854576
##########           Internal_energy_repulsive:            6.599904

@<TRIPOS>MOLECULE
ZINC001004075025
 52 54 1 0 0
SMALL
USER_CHARGES


@<TRIPOS>ATOM
      1 C1         -8.6911    0.1961   65.1366 C.3     1  ZINC001004075025   -0.1500
      2 C2         -9.9058    0.7849   64.4163 C.3     1  ZINC001004075025   -0.1200
      3 C3         -9.8013    0.4925   62.9181 C.3     1  ZINC001004075025    0.0800
      4 H4         -9.7347   -0.5818   62.7466 H       1  ZINC001004075025    0.0700
      5 C5        -11.0228    1.0820   62.1687 C.3     1  ZINC001004075025   -0.1500
      6 C6        -10.4348    1.2621   60.7426 C.3     1  ZINC001004075025   -0.1400
      7 C7         -8.9639    1.6263   61.0382 C.3     1  ZINC001004075025    0.0700
      8 H8         -8.8334    2.7073   60.9884 H       1  ZINC001004075025    0.1100
      9 C9         -8.0599    0.9555   60.0363 C.2     1  ZINC001004075025    0.5300
     10 O10        -7.5572   -0.1172   60.2958 O.2     1  ZINC001004075025   -0.5200
     11 N11        -7.8099    1.5478   58.8517 N.am    1  ZINC001004075025   -0.6500
     12 C12        -8.2049    2.8004   58.1899 C.3     1  ZINC001004075025    0.1100
     13 C13        -7.9992    2.0909   56.8443 C.3     1  ZINC001004075025   -0.1400
     14 C14        -7.3329    2.9574   55.7737 C.3     1  ZINC001004075025    0.1300
     15 N15        -6.8314    2.1017   54.6955 N.am    1  ZINC001004075025   -0.7200
     16 C16        -7.6018    1.8546   53.6176 C.2     1  ZINC001004075025    0.6000
     17 O17        -8.7126    2.3431   53.5393 O.2     1  ZINC001004075025   -0.5300
     18 C18        -7.0978    0.9922   52.5335 C.2     1  ZINC001004075025   -0.2700
     19 C19        -6.1160    1.2616   51.6115 C.2     1  ZINC001004075025    0.0700
     20 C20        -5.3109    2.5300   51.4935 C.3     1  ZINC001004075025   -0.0300
     21 C21        -4.0802    2.2736   50.6213 C.3     1  ZINC001004075025   -0.1500
     22 C22        -6.1706    3.6222   50.8540 C.3     1  ZINC001004075025   -0.1500
     23 O23        -6.0169    0.1763   50.8406 O.3     1  ZINC001004075025    0.1000
     24 N24        -6.7838   -0.7007   51.1548 N.2     1  ZINC001004075025   -0.3500
     25 C25        -7.5176   -0.3715   52.1763 C.2     1  ZINC001004075025    0.0200
     26 C26        -7.0170    1.2291   57.6548 C.3     1  ZINC001004075025    0.1100
     27 O27        -8.6581    1.1584   62.3586 O.3     1  ZINC001004075025   -0.3400
     28 H28        -8.7654    0.4045   66.2040 H       1  ZINC001004075025    0.0600
     29 H29        -8.6618   -0.8818   64.9779 H       1  ZINC001004075025    0.0500
     30 H30        -7.7806    0.6464   64.7411 H       1  ZINC001004075025    0.0600
     31 H31       -10.8162    0.3346   64.8118 H       1  ZINC001004075025    0.0800
     32 H32        -9.9350    1.8629   64.5750 H       1  ZINC001004075025    0.0700
     33 H33       -11.8568    0.3802   62.1640 H       1  ZINC001004075025    0.0900
     34 H34       -11.3202    2.0400   62.5950 H       1  ZINC001004075025    0.0900
     35 H35       -10.4982    0.3327   60.1766 H       1  ZINC001004075025    0.0800
     36 H36       -10.9368    2.0735   60.2156 H       1  ZINC001004075025    0.0900
     37 H37        -9.2407    3.0828   58.3778 H       1  ZINC001004075025    0.0900
     38 H38        -7.5066    3.6200   58.3597 H       1  ZINC001004075025    0.0900
     39 H39        -8.8777    1.5573   56.4816 H       1  ZINC001004075025    0.1100
     40 H40        -8.0615    3.6607   55.3703 H       1  ZINC001004075025    0.0800
     41 H41        -6.5029    3.5079   56.2165 H       1  ZINC001004075025    0.0800
     42 H42        -5.9447    1.7129   54.7574 H       1  ZINC001004075025    0.4000
     43 H43        -4.9928    2.8520   52.4851 H       1  ZINC001004075025    0.1300
     44 H44        -4.3983    1.9517   49.6298 H       1  ZINC001004075025    0.0600
     45 H45        -3.4979    3.1911   50.5360 H       1  ZINC001004075025    0.0700
     46 H46        -3.4677    1.4956   51.0769 H       1  ZINC001004075025    0.0600
     47 H47        -6.4887    3.3002   49.8624 H       1  ZINC001004075025    0.0600
     48 H48        -7.0474    3.8048   51.4754 H       1  ZINC001004075025    0.0600
     49 H49        -5.5883    4.5396   50.7687 H       1  ZINC001004075025    0.0700
     50 H50        -8.2783   -0.9696   52.6561 H       1  ZINC001004075025    0.2000
     51 H51        -6.0047    1.6325   57.6805 H       1  ZINC001004075025    0.0900
     52 H52        -7.0438    0.1728   57.3875 H       1  ZINC001004075025    0.0800
@<TRIPOS>BOND
     1     1     2    1
     2     1    28    1
     3     1    29    1
     4     1    30    1
     5     2     3    1
     6     2    31    1
     7     2    32    1
     8     3     4    1
     9     3    27    1
    10     3     5    1
    11     5     6    1
    12     5    33    1
    13     5    34    1
    14     6     7    1
    15     6    35    1
    16     6    36    1
    17     7     8    1
    18     7     9    1
    19     7    27    1
    20     9    10    2
    21     9    11   am
    22    11    26    1
    23    11    12    1
    24    12    13    1
    25    12    37    1
    26    12    38    1
    27    13    14    1
    28    13    26    1
    29    13    39    1
    30    14    15    1
    31    14    40    1
    32    14    41    1
    33    15    16   am
    34    15    42    1
    35    16    17    2
    36    16    18    1
    37    18    25    1
    38    18    19    2
    39    19    20    1
    40    19    23    1
    41    20    21    1
    42    20    22    1
    43    20    43    1
    44    21    44    1
    45    21    45    1
    46    21    46    1
    47    22    47    1
    48    22    48    1
    49    22    49    1
    50    23    24    1
    51    24    25    2
    52    25    50    1
    53    26    51    1
    54    26    52    1
@<TRIPOS>SUBSTRUCTURE
     1 ZINC001004075025        1 TEMP              0 ****  ****    0 ROOT


##########                                Name:    ZINC000512239524
##########                DOCK_Rotatable_Bonds:                   9
##########                         Heavy_Atoms:                  31
##########                    Molecular_Weight:             424.518
##########                DOCK_Rotatable_Bonds:                   9
##########                       Formal_Charge:          0.00999919
##########                     HBond_Acceptors:                   7
##########                        HBond_Donors:                   1
##########                         Heavy_Atoms:                  31
##########                          Grid_Score:          -33.536797
##########                     Grid_vdw_energy:          -32.074615
##########                      Grid_es_energy:           -1.462179
##########           Internal_energy_repulsive:           28.854300

@<TRIPOS>MOLECULE
ZINC000512239524
 60 63 1 0 0
SMALL
USER_CHARGES


@<TRIPOS>ATOM
      1 C1         -5.8401    4.7121   52.5506 C.3     1  ZINC000512239524   -0.1600
      2 C2         -4.7840    3.6065   52.4943 C.3     1  ZINC000512239524    0.2000
      3 H3         -4.0501    3.8440   51.7242 H       1  ZINC000512239524    0.1100
      4 N4         -4.1138    3.5048   53.7930 N.am    1  ZINC000512239524   -0.7400
      5 C5         -3.0716    4.3103   54.0784 C.2     1  ZINC000512239524    0.7100
      6 O6         -2.6876    5.1213   53.2579 O.2     1  ZINC000512239524   -0.5800
      7 N7         -2.4550    4.2167   55.2731 N.am    1  ZINC000512239524   -0.6300
      8 C8         -2.9037    3.2376   56.2725 C.3     1  ZINC000512239524    0.1300
      9 C9         -1.7034    2.3896   56.7054 C.3     1  ZINC000512239524   -0.1100
     10 C10        -0.5807    3.3109   57.1881 C.3     1  ZINC000512239524   -0.1000
     11 C11         0.5891    2.4789   57.6467 C.2     1  ZINC000512239524    0.5300
     12 O12         1.4485    2.1525   56.8555 O.2     1  ZINC000512239524   -0.5300
     13 N13         0.6803    2.0973   58.9362 N.am    1  ZINC000512239524   -0.5800
     14 C14        -0.3587    2.4901   59.8915 C.3     1  ZINC000512239524    0.1500
     15 C15        -0.0894    1.8373   61.2229 C.ar    1  ZINC000512239524   -0.1100
     16 C16        -0.2794    0.4767   61.3765 C.ar    1  ZINC000512239524   -0.0900
     17 C17        -0.0325   -0.1220   62.5977 C.ar    1  ZINC000512239524   -0.1200
     18 C18         0.4048    0.6397   63.6652 C.ar    1  ZINC000512239524   -0.1100
     19 C19         0.5956    2.0001   63.5113 C.ar    1  ZINC000512239524   -0.1200
     20 C20         0.3529    2.5982   62.2889 C.ar    1  ZINC000512239524   -0.1100
     21 C21         1.8183    1.2900   59.3824 C.3     1  ZINC000512239524    0.0700
     22 C22         3.2116    1.7120   58.9116 C.3     1  ZINC000512239524   -0.1900
     23 C23         2.7969    1.9321   60.3677 C.3     1  ZINC000512239524   -0.2000
     24 C24        -0.1390    4.2233   56.0416 C.3     1  ZINC000512239524   -0.1400
     25 C25        -1.3175    5.0879   55.5988 C.3     1  ZINC000512239524    0.1100
     26 C26        -5.4481    2.2938   52.1674 C.ar    1  ZINC000512239524   -0.0800
     27 C27        -6.4576    1.7896   52.9721 C.ar    1  ZINC000512239524   -0.1400
     28 C28        -7.0440    0.5824   52.6409 C.ar    1  ZINC000512239524    0.1000
     29 N29        -6.6540   -0.0883   51.5749 N.ar    1  ZINC000512239524   -0.4600
     30 C30        -5.6970    0.3590   50.7855 C.ar    1  ZINC000512239524    0.0800
     31 C31        -5.0671    1.5629   51.0497 C.ar    1  ZINC000512239524    0.0600
     32 F32        -4.0874    2.0157   50.2370 F       1  ZINC000512239524   -0.1200
     33 H33        -5.3599    5.6616   52.7870 H       1  ZINC000512239524    0.0700
     34 H34        -6.3388    4.7878   51.5842 H       1  ZINC000512239524    0.0700
     35 H35        -6.5741    4.4746   53.3206 H       1  ZINC000512239524    0.0600
     36 H36        -4.4201    2.8577   54.4475 H       1  ZINC000512239524    0.3900
     37 H37        -3.3133    3.7595   57.1372 H       1  ZINC000512239524    0.0700
     38 H38        -3.6674    2.5939   55.8361 H       1  ZINC000512239524    0.1000
     39 H39        -2.0016    1.7241   57.5155 H       1  ZINC000512239524    0.0900
     40 H40        -1.3513    1.7990   55.8597 H       1  ZINC000512239524    0.0800
     41 H41        -0.9413    3.9190   58.0177 H       1  ZINC000512239524    0.1000
     42 H42        -0.3522    3.5736   60.0103 H       1  ZINC000512239524    0.0900
     43 H43        -1.3326    2.1709   59.5207 H       1  ZINC000512239524    0.1000
     44 H44        -0.6211   -0.1184   60.5426 H       1  ZINC000512239524    0.1300
     45 H45        -0.1816   -1.1849   62.7180 H       1  ZINC000512239524    0.1200
     46 H46         0.5971    0.1720   64.6195 H       1  ZINC000512239524    0.1200
     47 H47         0.9370    2.5953   64.3453 H       1  ZINC000512239524    0.1200
     48 H48         0.5019    3.6611   62.1686 H       1  ZINC000512239524    0.1200
     49 H49         1.6246    0.2227   59.4890 H       1  ZINC000512239524    0.1300
     50 H50         3.9347    0.9221   58.7083 H       1  ZINC000512239524    0.1100
     51 H51         3.2815    2.5902   58.2699 H       1  ZINC000512239524    0.1000
     52 H52         2.5939    2.9553   60.6840 H       1  ZINC000512239524    0.1100
     53 H53         3.2472    1.2873   61.1224 H       1  ZINC000512239524    0.1000
     54 H54         0.6765    4.8630   56.3792 H       1  ZINC000512239524    0.0900
     55 H55         0.1985    3.6154   55.2021 H       1  ZINC000512239524    0.0700
     56 H56        -1.0358    5.6671   54.7195 H       1  ZINC000512239524    0.0800
     57 H57        -1.6007    5.7617   56.4075 H       1  ZINC000512239524    0.0800
     58 H58        -6.7820    2.3330   53.8472 H       1  ZINC000512239524    0.1400
     59 H59        -7.8314    0.1834   53.2633 H       1  ZINC000512239524    0.1700
     60 H60        -5.4041   -0.2186   49.9212 H       1  ZINC000512239524    0.1700
@<TRIPOS>BOND
     1     1     2    1
     2     1    33    1
     3     1    34    1
     4     1    35    1
     5     2     3    1
     6     2     4    1
     7     2    26    1
     8     4     5   am
     9     4    36    1
    10     5     6    2
    11     5     7   am
    12     7    25    1
    13     7     8    1
    14     8     9    1
    15     8    37    1
    16     8    38    1
    17     9    10    1
    18     9    39    1
    19     9    40    1
    20    10    11    1
    21    10    24    1
    22    10    41    1
    23    11    12    2
    24    11    13   am
    25    13    14    1
    26    13    21    1
    27    14    15    1
    28    14    42    1
    29    14    43    1
    30    15    20   ar
    31    15    16   ar
    32    16    17   ar
    33    16    44    1
    34    17    18   ar
    35    17    45    1
    36    18    19   ar
    37    18    46    1
    38    19    20   ar
    39    19    47    1
    40    20    48    1
    41    21    23    1
    42    21    22    1
    43    21    49    1
    44    22    23    1
    45    22    50    1
    46    22    51    1
    47    23    52    1
    48    23    53    1
    49    24    25    1
    50    24    54    1
    51    24    55    1
    52    25    56    1
    53    25    57    1
    54    26    31   ar
    55    26    27   ar
    56    27    28   ar
    57    27    58    1
    58    28    29   ar
    59    28    59    1
    60    29    30   ar
    61    30    31   ar
    62    30    60    1
    63    31    32    1
@<TRIPOS>SUBSTRUCTURE
     1 ZINC000512239524        1 TEMP              0 ****  ****    0 ROOT


##########                                Name:    ZINC000745364361
##########                DOCK_Rotatable_Bonds:                   8
##########                         Heavy_Atoms:                  29
##########                    Molecular_Weight:             398.434
##########                DOCK_Rotatable_Bonds:                   8
##########                       Formal_Charge:          0.00999923
##########                     HBond_Acceptors:                   7
##########                        HBond_Donors:                   1
##########                         Heavy_Atoms:                  29
##########                          Grid_Score:          -33.499039
##########                     Grid_vdw_energy:          -32.751591
##########                      Grid_es_energy:           -0.747449
##########           Internal_energy_repulsive:           16.712950

@<TRIPOS>MOLECULE
ZINC000745364361
 52 54 1 0 0
SMALL
USER_CHARGES


@<TRIPOS>ATOM
      1 C1         -5.0396    3.7229   52.9455 C.3     1  ZINC000745364361   -0.1700
      2 C2         -5.3046    2.8275   51.7335 C.3     1  ZINC000745364361    0.0700
      3 H3         -5.8399    3.3951   50.9725 H       1  ZINC000745364361    0.1100
      4 O4         -6.1063    1.6872   52.1401 O.3     1  ZINC000745364361   -0.3200
      5 C5         -7.4244    1.8916   52.2903 C.2     1  ZINC000745364361    0.4700
      6 O6         -7.9081    2.9580   51.9926 O.2     1  ZINC000745364361   -0.4900
      7 C7         -8.3009    0.7908   52.8299 C.3     1  ZINC000745364361   -0.0400
      8 H8         -9.2887    0.8562   52.3738 H       1  ZINC000745364361    0.1200
      9 C9         -7.6759   -0.5664   52.5005 C.3     1  ZINC000745364361   -0.1400
     10 C10        -8.4270    0.9363   54.3246 C.ar    1  ZINC000745364361   -0.0500
     11 C11        -7.4171    1.5431   55.0474 C.ar    1  ZINC000745364361   -0.1000
     12 C12        -7.5315    1.6772   56.4187 C.ar    1  ZINC000745364361   -0.0900
     13 C13        -8.6558    1.2047   57.0683 C.ar    1  ZINC000745364361   -0.1500
     14 C14        -9.6685    0.5970   56.3451 C.ar    1  ZINC000745364361    0.1000
     15 F15       -10.7682    0.1345   56.9792 F       1  ZINC000745364361   -0.1400
     16 C16        -9.5552    0.4679   54.9715 C.ar    1  ZINC000745364361   -0.1400
     17 C17        -3.9931    2.3440   51.1699 C.2     1  ZINC000745364361    0.5200
     18 O18        -3.9062    1.2248   50.7105 O.2     1  ZINC000745364361   -0.5000
     19 N19        -2.9169    3.1553   51.1765 N.am    1  ZINC000745364361   -0.6700
     20 C20        -1.6980    2.7059   50.6526 C.ar    1  ZINC000745364361    0.1200
     21 C21        -1.6595    2.1044   49.4016 C.ar    1  ZINC000745364361   -0.1100
     22 C22        -0.4582    1.6615   48.8853 C.ar    1  ZINC000745364361   -0.1400
     23 C23         0.7118    1.8179   49.6169 C.ar    1  ZINC000745364361    0.1500
     24 N24         1.9306    1.3681   49.0932 N.am    1  ZINC000745364361   -0.5600
     25 C25         2.7988    0.3814   49.7464 C.3     1  ZINC000745364361    0.0900
     26 C26         3.7593   -0.1163   48.6438 C.3     1  ZINC000745364361   -0.1300
     27 C27         3.7717    1.0851   47.6705 C.3     1  ZINC000745364361   -0.1500
     28 C28         2.4525    1.7804   47.9252 C.2     1  ZINC000745364361    0.5200
     29 O29         1.9434    2.5967   47.1864 O.2     1  ZINC000745364361   -0.5100
     30 C30         0.6735    2.4207   50.8673 C.ar    1  ZINC000745364361   -0.1400
     31 C31        -0.5273    2.8671   51.3819 C.ar    1  ZINC000745364361   -0.0900
     32 H32        -5.9881    4.0725   53.3532 H       1  ZINC000745364361    0.0800
     33 H33        -4.5043    3.1552   53.7066 H       1  ZINC000745364361    0.0800
     34 H34        -4.4378    4.5788   52.6403 H       1  ZINC000745364361    0.0800
     35 H35        -6.6882   -0.6318   52.9567 H       1  ZINC000745364361    0.0700
     36 H36        -8.3098   -1.3626   52.8909 H       1  ZINC000745364361    0.0800
     37 H37        -7.5847   -0.6716   51.4195 H       1  ZINC000745364361    0.0800
     38 H38        -6.5378    1.9123   54.5406 H       1  ZINC000745364361    0.1300
     39 H39        -6.7416    2.1512   56.9825 H       1  ZINC000745364361    0.1400
     40 H40        -8.7446    1.3089   58.1395 H       1  ZINC000745364361    0.1400
     41 H41       -10.3444   -0.0055   54.4064 H       1  ZINC000745364361    0.1400
     42 H42        -2.9864    4.0502   51.5439 H       1  ZINC000745364361    0.4100
     43 H43        -2.5694    1.9827   48.8326 H       1  ZINC000745364361    0.1300
     44 H44        -0.4284    1.1930   47.9127 H       1  ZINC000745364361    0.1600
     45 H45         3.3617    0.8500   50.5537 H       1  ZINC000745364361    0.0800
     46 H46         2.2048   -0.4474   50.1315 H       1  ZINC000745364361    0.0900
     47 H47         4.7547   -0.3013   49.0479 H       1  ZINC000745364361    0.1000
     48 H48         3.3656   -1.0086   48.1571 H       1  ZINC000745364361    0.0900
     49 H49         4.6068    1.7490   47.8944 H       1  ZINC000745364361    0.1100
     50 H50         3.8244    0.7393   46.6382 H       1  ZINC000745364361    0.1100
     51 H51         1.5833    2.5427   51.4362 H       1  ZINC000745364361    0.1300
     52 H52        -0.5570    3.3358   52.3544 H       1  ZINC000745364361    0.1400
@<TRIPOS>BOND
     1     1     2    1
     2     1    32    1
     3     1    33    1
     4     1    34    1
     5     2     3    1
     6     2     4    1
     7     2    17    1
     8     4     5    1
     9     5     6    2
    10     5     7    1
    11     7     8    1
    12     7     9    1
    13     7    10    1
    14     9    35    1
    15     9    36    1
    16     9    37    1
    17    10    16   ar
    18    10    11   ar
    19    11    12   ar
    20    11    38    1
    21    12    13   ar
    22    12    39    1
    23    13    14   ar
    24    13    40    1
    25    14    15    1
    26    14    16   ar
    27    16    41    1
    28    17    18    2
    29    17    19   am
    30    19    20    1
    31    19    42    1
    32    20    31   ar
    33    20    21   ar
    34    21    22   ar
    35    21    43    1
    36    22    23   ar
    37    22    44    1
    38    23    24    1
    39    23    30   ar
    40    24    28   am
    41    24    25    1
    42    25    26    1
    43    25    45    1
    44    25    46    1
    45    26    27    1
    46    26    47    1
    47    26    48    1
    48    27    28    1
    49    27    49    1
    50    27    50    1
    51    28    29    2
    52    30    31   ar
    53    30    51    1
    54    31    52    1
@<TRIPOS>SUBSTRUCTURE
     1 ZINC000745364361        1 TEMP              0 ****  ****    0 ROOT


##########                                Name:    ZINC000033150761
##########                DOCK_Rotatable_Bonds:                   7
##########                         Heavy_Atoms:                  29
##########                    Molecular_Weight:             413.407
##########                DOCK_Rotatable_Bonds:                   7
##########                       Formal_Charge:          0.00999993
##########                     HBond_Acceptors:                  10
##########                        HBond_Donors:                   1
##########                         Heavy_Atoms:                  29
##########                          Grid_Score:          -33.447514
##########                     Grid_vdw_energy:          -33.798008
##########                      Grid_es_energy:            0.350496
##########           Internal_energy_repulsive:            5.902764

@<TRIPOS>MOLECULE
ZINC000033150761
 42 45 1 0 0
SMALL
USER_CHARGES


@<TRIPOS>ATOM
      1 O1         -2.6047    2.3674   49.8007 O.2     1  ZINC000033150761   -0.5000
      2 C2         -2.8638    2.4794   50.9802 C.2     1  ZINC000033150761    0.5200
      3 C3         -4.2709    2.2484   51.4678 C.3     1  ZINC000033150761   -0.1300
      4 C4         -4.9187    1.1322   50.6460 C.3     1  ZINC000033150761   -0.0100
      5 C5         -6.1377    0.6191   51.3684 C.2     1  ZINC000033150761    0.1800
      6 N6         -6.9732    1.3285   52.0853 N.2     1  ZINC000033150761   -0.4400
      7 C7         -7.9009    0.4531   52.5337 C.2     1  ZINC000033150761    0.2200
      8 C8         -9.0687    0.7702   53.3942 C.ar    1  ZINC000033150761    0.1900
      9 C9         -9.3016    2.0861   53.7843 C.ar    1  ZINC000033150761   -0.1300
     10 C10       -10.3949    2.3667   54.5870 C.ar    1  ZINC000033150761   -0.0700
     11 C11       -11.2188    1.3199   54.9725 C.ar    1  ZINC000033150761   -0.1500
     12 C12       -10.9275    0.0357   54.5478 C.ar    1  ZINC000033150761    0.1100
     13 N13        -9.8842   -0.2021   53.7803 N.ar    1  ZINC000033150761   -0.4500
     14 N14        -7.5776   -0.7246   52.0677 N.2     1  ZINC000033150761   -0.3600
     15 O15        -6.5726   -0.6446   51.3933 O.3     1  ZINC000033150761    0.0900
     16 N16        -1.8922    2.8050   51.8557 N.am    1  ZINC000033150761   -0.6200
     17 C17        -0.5948    3.0180   51.4061 C.2     1  ZINC000033150761    0.2700
     18 N18         0.0886    2.1957   50.6726 N.2     1  ZINC000033150761   -0.5000
     19 C19         1.3163    2.5663   50.3369 C.2     1  ZINC000033150761    0.1200
     20 C20         2.2002    1.7171   49.5015 C.ar    1  ZINC000033150761    0.0000
     21 C21         3.5698    1.6729   49.7551 C.ar    1  ZINC000033150761   -0.0800
     22 C22         4.3894    0.8813   48.9760 C.ar    1  ZINC000033150761   -0.1200
     23 C23         3.8536    0.1311   47.9432 C.ar    1  ZINC000033150761    0.0700
     24 F24         4.6599   -0.6422   47.1835 F       1  ZINC000033150761   -0.1300
     25 C25         2.4903    0.1708   47.6864 C.ar    1  ZINC000033150761    0.0700
     26 F26         1.9719   -0.5634   46.6778 F       1  ZINC000033150761   -0.1300
     27 C27         1.6623    0.9567   48.4644 C.ar    1  ZINC000033150761   -0.1000
     28 C28         1.7050    3.7654   50.8058 C.2     1  ZINC000033150761   -0.2800
     29 S29         0.3750    4.4501   51.7374 S.3     1  ZINC000033150761    0.2200
     30 H30        -4.2485    1.9597   52.5187 H       1  ZINC000033150761    0.1200
     31 H31        -4.8497    3.1652   51.3552 H       1  ZINC000033150761    0.1200
     32 H32        -5.2113    1.5219   49.6710 H       1  ZINC000033150761    0.1300
     33 H33        -4.2058    0.3185   50.5129 H       1  ZINC000033150761    0.1200
     34 H34        -8.6388    2.8770   53.4656 H       1  ZINC000033150761    0.1400
     35 H35       -10.6009    3.3778   54.9057 H       1  ZINC000033150761    0.1500
     36 H36       -12.0792    1.5052   55.5985 H       1  ZINC000033150761    0.1400
     37 H37       -11.5668   -0.7820   54.8460 H       1  ZINC000033150761    0.1700
     38 H38        -2.0987    2.8907   52.7996 H       1  ZINC000033150761    0.4300
     39 H39         3.9895    2.2578   50.5600 H       1  ZINC000033150761    0.1400
     40 H40         5.4509    0.8475   49.1724 H       1  ZINC000033150761    0.1500
     41 H41         0.6014    0.9877   48.2648 H       1  ZINC000033150761    0.1600
     42 H42         2.6649    4.2305   50.6366 H       1  ZINC000033150761    0.1800
@<TRIPOS>BOND
     1     1     2    2
     2     2     3    1
     3     2    16   am
     4     3     4    1
     5     3    30    1
     6     3    31    1
     7     4     5    1
     8     4    32    1
     9     4    33    1
    10     5    15    1
    11     5     6    2
    12     6     7    1
    13     7     8    1
    14     7    14    2
    15     8    13   ar
    16     8     9   ar
    17     9    10   ar
    18     9    34    1
    19    10    11   ar
    20    10    35    1
    21    11    12   ar
    22    11    36    1
    23    12    13   ar
    24    12    37    1
    25    14    15    1
    26    16    17    1
    27    16    38    1
    28    17    29    1
    29    17    18    2
    30    18    19    1
    31    19    20    1
    32    19    28    2
    33    20    27   ar
    34    20    21   ar
    35    21    22   ar
    36    21    39    1
    37    22    23   ar
    38    22    40    1
    39    23    24    1
    40    23    25   ar
    41    25    26    1
    42    25    27   ar
    43    27    41    1
    44    28    29    1
    45    28    42    1
@<TRIPOS>SUBSTRUCTURE
     1 ZINC000033150761        1 TEMP              0 ****  ****    0 ROOT


##########                                Name:    ZINC000433961694
##########                DOCK_Rotatable_Bonds:                   7
##########                         Heavy_Atoms:                  29
##########                    Molecular_Weight:             413.472
##########                DOCK_Rotatable_Bonds:                   7
##########                       Formal_Charge:          0.00999992
##########                     HBond_Acceptors:                   8
##########                        HBond_Donors:                   0
##########                         Heavy_Atoms:                  29
##########                          Grid_Score:          -33.395203
##########                     Grid_vdw_energy:          -32.605335
##########                      Grid_es_energy:           -0.789869
##########           Internal_energy_repulsive:           12.093455

@<TRIPOS>MOLECULE
ZINC000433961694
 49 52 1 0 0
SMALL
USER_CHARGES


@<TRIPOS>ATOM
      1 C1         -7.1485    5.0330   52.3576 C.3     1  ZINC000433961694   -0.1000
      2 C2         -6.5610    3.6851   52.0274 C.2     1  ZINC000433961694    0.1600
      3 C3         -7.2186    2.5198   52.2508 C.2     1  ZINC000433961694   -0.3000
      4 C4         -8.5595    2.3805   52.8290 C.2     1  ZINC000433961694    0.6200
      5 O5         -9.5372    2.3787   52.1047 O.2     1  ZINC000433961694   -0.5100
      6 N6         -8.7085    2.2546   54.1626 N.am    1  ZINC000433961694   -0.6100
      7 C7         -9.9915    2.1077   54.8738 C.3     1  ZINC000433961694    0.1100
      8 C8         -9.6293    1.3994   56.2030 C.3     1  ZINC000433961694   -0.1300
      9 C9         -8.2608    2.0486   56.5391 C.3     1  ZINC000433961694    0.0800
     10 H10        -8.4010    3.0092   57.0348 H       1  ZINC000433961694    0.1000
     11 O11        -7.4717    1.1745   57.3487 O.3     1  ZINC000433961694   -0.2900
     12 C12        -7.8674    1.0016   58.6355 C.ar    1  ZINC000433961694    0.1700
     13 C13        -7.4660   -0.1168   59.3618 C.ar    1  ZINC000433961694   -0.2600
     14 C14        -7.8895   -0.2561   60.6675 C.ar    1  ZINC000433961694    0.1400
     15 N15        -8.6642    0.6534   61.2278 N.ar    1  ZINC000433961694   -0.5100
     16 C16        -9.0652    1.7263   60.5724 C.ar    1  ZINC000433961694    0.1400
     17 C17        -8.6801    1.9411   59.2650 C.ar    1  ZINC000433961694   -0.2000
     18 C18        -7.6180    2.2346   55.1486 C.3     1  ZINC000433961694    0.0600
     19 S19        -6.1735    1.2035   51.7214 S.3     1  ZINC000433961694    0.2100
     20 C20        -4.9736    2.3297   51.2587 C.2     1  ZINC000433961694    0.0400
     21 C21        -3.6410    1.9676   50.6553 C.3     1  ZINC000433961694    0.1400
     22 O22        -2.6977    3.0065   50.9255 O.3     1  ZINC000433961694   -0.3000
     23 C23        -1.3895    2.7323   50.6770 C.ar    1  ZINC000433961694    0.1200
     24 C24        -0.4182    3.0865   51.6017 C.ar    1  ZINC000433961694   -0.1800
     25 C25         0.9107    2.8072   51.3479 C.ar    1  ZINC000433961694   -0.1100
     26 C26         1.2733    2.1745   50.1710 C.ar    1  ZINC000433961694    0.0600
     27 F27         2.5733    1.9023   49.9238 F       1  ZINC000433961694   -0.1400
     28 C28         0.3047    1.8199   49.2473 C.ar    1  ZINC000433961694   -0.1100
     29 C29        -1.0255    2.0929   49.5011 C.ar    1  ZINC000433961694   -0.1200
     30 N30        -5.3738    3.5377   51.4949 N.2     1  ZINC000433961694   -0.4500
     31 H31        -7.7048    5.4072   51.4981 H       1  ZINC000433961694    0.0800
     32 H32        -7.8195    4.9377   53.2112 H       1  ZINC000433961694    0.1000
     33 H33        -6.3461    5.7290   52.6021 H       1  ZINC000433961694    0.0800
     34 H34       -10.4294    3.0859   55.0723 H       1  ZINC000433961694    0.0800
     35 H35       -10.6795    1.4941   54.2922 H       1  ZINC000433961694    0.1000
     36 H36       -10.3661    1.6185   56.9758 H       1  ZINC000433961694    0.1000
     37 H37        -9.5264    0.3241   56.0573 H       1  ZINC000433961694    0.1000
     38 H38        -6.8324   -0.8651   58.9090 H       1  ZINC000433961694    0.1400
     39 H39        -7.5834   -1.1206   61.2380 H       1  ZINC000433961694    0.1600
     40 H40        -9.6991    2.4474   61.0670 H       1  ZINC000433961694    0.1700
     41 H41        -9.0115    2.8214   58.7343 H       1  ZINC000433961694    0.1400
     42 H42        -6.9387    1.4079   54.9406 H       1  ZINC000433961694    0.0900
     43 H43        -7.0764    3.1799   55.1140 H       1  ZINC000433961694    0.0800
     44 H44        -3.2869    1.0332   51.0907 H       1  ZINC000433961694    0.0900
     45 H45        -3.7507    1.8477   49.5776 H       1  ZINC000433961694    0.1000
     46 H46        -0.7007    3.5807   52.5194 H       1  ZINC000433961694    0.1400
     47 H47         1.6672    3.0829   52.0676 H       1  ZINC000433961694    0.1400
     48 H48         0.5889    1.3261   48.3298 H       1  ZINC000433961694    0.1500
     49 H49        -1.7809    1.8162   48.7806 H       1  ZINC000433961694    0.1400
@<TRIPOS>BOND
     1     1     2    1
     2     1    31    1
     3     1    32    1
     4     1    33    1
     5     2    30    1
     6     2     3    2
     7     3     4    1
     8     3    19    1
     9     4     5    2
    10     4     6   am
    11     6    18    1
    12     6     7    1
    13     7     8    1
    14     7    34    1
    15     7    35    1
    16     8     9    1
    17     8    36    1
    18     8    37    1
    19     9    10    1
    20     9    11    1
    21     9    18    1
    22    11    12    1
    23    12    17   ar
    24    12    13   ar
    25    13    14   ar
    26    13    38    1
    27    14    15   ar
    28    14    39    1
    29    15    16   ar
    30    16    17   ar
    31    16    40    1
    32    17    41    1
    33    18    42    1
    34    18    43    1
    35    19    20    1
    36    20    21    1
    37    20    30    2
    38    21    22    1
    39    21    44    1
    40    21    45    1
    41    22    23    1
    42    23    29   ar
    43    23    24   ar
    44    24    25   ar
    45    24    46    1
    46    25    26   ar
    47    25    47    1
    48    26    27    1
    49    26    28   ar
    50    28    29   ar
    51    28    48    1
    52    29    49    1
@<TRIPOS>SUBSTRUCTURE
     1 ZINC000433961694        1 TEMP              0 ****  ****    0 ROOT


##########                                Name:    ZINC001289445798
##########                DOCK_Rotatable_Bonds:                  10
##########                         Heavy_Atoms:                  25
##########                    Molecular_Weight:             352.434
##########                DOCK_Rotatable_Bonds:                  10
##########                       Formal_Charge:          0.00999932
##########                     HBond_Acceptors:                   8
##########                        HBond_Donors:                   2
##########                         Heavy_Atoms:                  25
##########                          Grid_Score:          -33.368309
##########                     Grid_vdw_energy:          -32.957371
##########                      Grid_es_energy:           -0.410937
##########           Internal_energy_repulsive:           23.346169

@<TRIPOS>MOLECULE
ZINC001289445798
 53 54 1 0 0
SMALL
USER_CHARGES


@<TRIPOS>ATOM
      1 C1          2.2612    0.8249   47.8501 C.3     1  ZINC001289445798   -0.1500
      2 C2          3.0635    2.0065   48.3986 C.3     1  ZINC001289445798    0.0600
      3 O3          2.1905    2.8853   49.1112 O.3     1  ZINC001289445798   -0.3700
      4 C4          1.9698    2.5081   50.4716 C.3     1  ZINC001289445798    0.1100
      5 H5          1.8888    1.4232   50.5393 H       1  ZINC001289445798    0.0700
      6 C6          0.6745    3.1486   50.9747 C.3     1  ZINC001289445798   -0.1400
      7 C7         -0.5070    2.4179   50.3907 C.2     1  ZINC001289445798    0.5400
      8 O8         -0.3394    1.5975   49.5133 O.2     1  ZINC001289445798   -0.5200
      9 N9         -1.7499    2.6761   50.8432 N.am    1  ZINC001289445798   -0.6200
     10 C10        -2.9849    2.0338   50.3700 C.3     1  ZINC001289445798    0.1000
     11 C11        -4.1513    2.6226   51.1911 C.3     1  ZINC001289445798    0.1400
     12 H12        -4.6298    3.4393   50.6507 H       1  ZINC001289445798    0.1200
     13 N13        -5.1273    1.5823   51.5248 N.am    1  ZINC001289445798   -0.7200
     14 C14        -6.2885    1.9148   52.1228 C.2     1  ZINC001289445798    0.6000
     15 O15        -6.5255    3.0782   52.3867 O.2     1  ZINC001289445798   -0.5100
     16 C16        -7.2698    0.8700   52.4565 C.2     1  ZINC001289445798   -0.0500
     17 C17        -8.3852    1.0055   53.2646 C.2     1  ZINC001289445798   -0.1400
     18 C18        -8.9916   -0.2527   53.2722 C.2     1  ZINC001289445798    0.0000
     19 N19        -8.2736   -1.0489   52.5221 N.2     1  ZINC001289445798   -0.2700
     20 N20        -7.2657   -0.4264   52.0258 N.pl3   1  ZINC001289445798   -0.3800
     21 C21        -3.4458    3.1490   52.4689 C.3     1  ZINC001289445798    0.0700
     22 H22        -3.2909    2.3454   53.1888 H       1  ZINC001289445798    0.0900
     23 O23        -4.1834    4.2233   53.0555 O.3     1  ZINC001289445798   -0.3700
     24 C24        -3.8318    4.4962   54.4134 C.3     1  ZINC001289445798    0.0300
     25 C25        -2.0957    3.6448   51.8994 C.3     1  ZINC001289445798    0.0800
     26 C26         3.1422    2.9865   51.3303 C.3     1  ZINC001289445798   -0.1100
     27 C27         2.9833    4.4795   51.6243 C.3     1  ZINC001289445798   -0.1500
     28 C28         3.1618    2.2068   52.6467 C.3     1  ZINC001289445798   -0.1500
     29 H29         1.4871    1.1927   47.1767 H       1  ZINC001289445798    0.0600
     30 H30         2.9271    0.1546   47.3067 H       1  ZINC001289445798    0.0700
     31 H31         1.7978    0.2856   48.6762 H       1  ZINC001289445798    0.0600
     32 H32         3.8376    1.6388   49.0721 H       1  ZINC001289445798    0.0500
     33 H33         3.5269    2.5458   47.5725 H       1  ZINC001289445798    0.0500
     34 H34         0.6378    3.0879   52.0624 H       1  ZINC001289445798    0.1100
     35 H35         0.6431    4.1940   50.6678 H       1  ZINC001289445798    0.1000
     36 H36        -3.1317    2.2477   49.3113 H       1  ZINC001289445798    0.0800
     37 H37        -2.9267    0.9569   50.5281 H       1  ZINC001289445798    0.0800
     38 H38        -4.9379    0.6543   51.3155 H       1  ZINC001289445798    0.4000
     39 H39        -8.7162    1.8952   53.7799 H       1  ZINC001289445798    0.1700
     40 H40        -9.8929   -0.5208   53.8035 H       1  ZINC001289445798    0.1900
     41 H41        -6.5994   -0.8186   51.4401 H       1  ZINC001289445798    0.4400
     42 H42        -4.4356    5.3239   54.7857 H       1  ZINC001289445798    0.0900
     43 H43        -4.0156    3.6103   55.0214 H       1  ZINC001289445798    0.0400
     44 H44        -2.7764    4.7627   54.4690 H       1  ZINC001289445798    0.0500
     45 H45        -1.3339    3.6493   52.6790 H       1  ZINC001289445798    0.0900
     46 H46        -2.2075    4.6410   51.4713 H       1  ZINC001289445798    0.0900
     47 H47         4.0769    2.8190   50.7950 H       1  ZINC001289445798    0.0800
     48 H48         2.0487    4.6470   52.1597 H       1  ZINC001289445798    0.0600
     49 H49         3.8186    4.8203   52.2361 H       1  ZINC001289445798    0.0600
     50 H50         2.9694    5.0350   50.6865 H       1  ZINC001289445798    0.0600
     51 H51         3.3727    1.1568   52.4439 H       1  ZINC001289445798    0.0600
     52 H52         3.9351    2.6135   53.2984 H       1  ZINC001289445798    0.0600
     53 H53         2.1916    2.2947   53.1355 H       1  ZINC001289445798    0.0500
@<TRIPOS>BOND
     1     1     2    1
     2     1    29    1
     3     1    30    1
     4     1    31    1
     5     2     3    1
     6     2    32    1
     7     2    33    1
     8     3     4    1
     9     4     5    1
    10     4     6    1
    11     4    26    1
    12     6     7    1
    13     6    34    1
    14     6    35    1
    15     7     8    2
    16     7     9   am
    17     9    25    1
    18     9    10    1
    19    10    11    1
    20    10    36    1
    21    10    37    1
    22    11    12    1
    23    11    13    1
    24    11    21    1
    25    13    14   am
    26    13    38    1
    27    14    15    2
    28    14    16    1
    29    16    20    1
    30    16    17    2
    31    17    18    1
    32    17    39    1
    33    18    19    2
    34    18    40    1
    35    19    20    1
    36    20    41    1
    37    21    22    1
    38    21    23    1
    39    21    25    1
    40    23    24    1
    41    24    42    1
    42    24    43    1
    43    24    44    1
    44    25    45    1
    45    25    46    1
    46    26    27    1
    47    26    28    1
    48    26    47    1
    49    27    48    1
    50    27    49    1
    51    27    50    1
    52    28    51    1
    53    28    52    1
    54    28    53    1
@<TRIPOS>SUBSTRUCTURE
     1 ZINC001289445798        1 TEMP              0 ****  ****    0 ROOT


##########                                Name:    ZINC001707804910
##########                DOCK_Rotatable_Bonds:                   4
##########                         Heavy_Atoms:                  26
##########                    Molecular_Weight:             358.403
##########                DOCK_Rotatable_Bonds:                   4
##########                       Formal_Charge:          -0.0399996
##########                     HBond_Acceptors:                  10
##########                        HBond_Donors:                   0
##########                         Heavy_Atoms:                  26
##########                          Grid_Score:          -33.363194
##########                     Grid_vdw_energy:          -34.103180
##########                      Grid_es_energy:            0.739988
##########           Internal_energy_repulsive:           11.522252

@<TRIPOS>MOLECULE
ZINC001707804910
 48 51 1 0 0
SMALL
USER_CHARGES


@<TRIPOS>ATOM
      1 C1         -7.9190    0.6778   59.0730 C.3     1  ZINC001707804910   -0.0700
      2 C2         -7.8067    1.3165   57.7127 C.2     1  ZINC001707804910    0.0700
      3 N3         -6.8417    2.1040   57.3122 N.2     1  ZINC001707804910   -0.2800
      4 N4         -7.1067    2.4837   55.9901 N.pl3   1  ZINC001707804910   -0.3700
      5 C5         -6.2762    3.3622   55.1626 C.3     1  ZINC001707804910    0.0900
      6 C6         -8.2622    1.8972   55.6132 C.2     1  ZINC001707804910    0.0500
      7 C7         -8.9280    2.0289   54.2677 C.3     1  ZINC001707804910    0.1800
      8 N8         -8.3962    1.0111   53.3580 N.pl3   1  ZINC001707804910   -0.4600
      9 C9         -8.8540   -0.2664   53.1903 C.2     1  ZINC001707804910    0.1900
     10 C10       -10.0134   -0.9019   53.9136 C.3     1  ZINC001707804910   -0.0700
     11 N11        -8.1025   -0.8322   52.2888 N.2     1  ZINC001707804910   -0.2800
     12 N12        -7.2079   -0.0055   51.8787 N.2     1  ZINC001707804910   -0.3000
     13 C13        -7.3451    1.1432   52.4980 C.2     1  ZINC001707804910    0.3500
     14 N14        -6.5645    2.2741   52.3187 N.3     1  ZINC001707804910   -0.4600
     15 C15        -7.2319    3.2402   51.4344 C.3     1  ZINC001707804910    0.0200
     16 C16        -6.3645    4.4958   51.3119 C.3     1  ZINC001707804910    0.0700
     17 O17        -5.0681    4.1285   50.8323 O.3     1  ZINC001707804910   -0.3600
     18 C18        -4.3892    3.1891   51.6699 C.3     1  ZINC001707804910    0.2000
     19 H19        -4.2375    3.6251   52.6574 H       1  ZINC001707804910    0.1000
     20 C20        -3.0542    2.8451   51.0613 C.2     1  ZINC001707804910    0.1600
     21 N21        -2.8526    2.0754   50.0298 N.2     1  ZINC001707804910   -0.2500
     22 N22        -1.5906    2.0065   49.7886 N.2     1  ZINC001707804910   -0.2900
     23 C23        -0.9442    2.7298   50.6580 C.2     1  ZINC001707804910    0.1700
     24 C24         0.5494    2.9187   50.7267 C.3     1  ZINC001707804910   -0.0600
     25 O25        -1.8539    3.2806   51.4793 O.3     1  ZINC001707804910   -0.2200
     26 C26        -5.2367    1.9203   51.7961 C.3     1  ZINC001707804910    0.0400
     27 C27        -8.7131    1.1652   56.6582 C.2     1  ZINC001707804910   -0.2300
     28 H28        -7.4167   -0.2895   59.0627 H       1  ZINC001707804910    0.0800
     29 H29        -7.4507    1.3224   59.8169 H       1  ZINC001707804910    0.0700
     30 H30        -8.9706    0.5385   59.3233 H       1  ZINC001707804910    0.0800
     31 H31        -5.4787    2.7797   54.7012 H       1  ZINC001707804910    0.0800
     32 H32        -6.8905    3.8167   54.3853 H       1  ZINC001707804910    0.0900
     33 H33        -5.8414    4.1438   55.7856 H       1  ZINC001707804910    0.0900
     34 H34       -10.0034    1.8903   54.3793 H       1  ZINC001707804910    0.1100
     35 H35        -8.7298    3.0200   53.8597 H       1  ZINC001707804910    0.1200
     36 H36       -10.9436   -0.6409   53.4087 H       1  ZINC001707804910    0.0900
     37 H37        -9.8918   -1.9850   53.9139 H       1  ZINC001707804910    0.1000
     38 H38       -10.0435   -0.5393   54.9411 H       1  ZINC001707804910    0.0700
     39 H39        -7.3706    2.7961   50.4487 H       1  ZINC001707804910    0.0700
     40 H40        -8.2020    3.5075   51.8535 H       1  ZINC001707804910    0.0900
     41 H41        -6.8277    5.1915   50.6122 H       1  ZINC001707804910    0.1200
     42 H42        -6.2702    4.9698   52.2888 H       1  ZINC001707804910    0.0700
     43 H43         0.8351    3.7785   50.1206 H       1  ZINC001707804910    0.1000
     44 H44         0.8470    3.0886   51.7614 H       1  ZINC001707804910    0.1000
     45 H45         1.0463    2.0257   50.3476 H       1  ZINC001707804910    0.1100
     46 H46        -4.7502    1.2241   52.4793 H       1  ZINC001707804910    0.1000
     47 H47        -5.3434    1.4550   50.8162 H       1  ZINC001707804910    0.0800
     48 H48        -9.6166    0.5738   56.6769 H       1  ZINC001707804910    0.1500
@<TRIPOS>BOND
     1     1     2    1
     2     1    28    1
     3     1    29    1
     4     1    30    1
     5     2    27    1
     6     2     3    2
     7     3     4    1
     8     4     5    1
     9     4     6    1
    10     5    31    1
    11     5    32    1
    12     5    33    1
    13     6     7    1
    14     6    27    2
    15     7     8    1
    16     7    34    1
    17     7    35    1
    18     8    13    1
    19     8     9    1
    20     9    10    1
    21     9    11    2
    22    10    36    1
    23    10    37    1
    24    10    38    1
    25    11    12    1
    26    12    13    2
    27    13    14    1
    28    14    26    1
    29    14    15    1
    30    15    16    1
    31    15    39    1
    32    15    40    1
    33    16    17    1
    34    16    41    1
    35    16    42    1
    36    17    18    1
    37    18    19    1
    38    18    20    1
    39    18    26    1
    40    20    25    1
    41    20    21    2
    42    21    22    1
    43    22    23    2
    44    23    24    1
    45    23    25    1
    46    24    43    1
    47    24    44    1
    48    24    45    1
    49    26    46    1
    50    26    47    1
    51    27    48    1
@<TRIPOS>SUBSTRUCTURE
     1 ZINC001707804910        1 TEMP              0 ****  ****    0 ROOT


##########                                Name:    ZINC000110375116
##########                DOCK_Rotatable_Bonds:                  10
##########                         Heavy_Atoms:                  27
##########                    Molecular_Weight:             396.511
##########                DOCK_Rotatable_Bonds:                  10
##########                       Formal_Charge:        -2.23517e-07
##########                     HBond_Acceptors:                   9
##########                        HBond_Donors:                   0
##########                         Heavy_Atoms:                  27
##########                          Grid_Score:          -33.337444
##########                     Grid_vdw_energy:          -32.878422
##########                      Grid_es_energy:           -0.459024
##########           Internal_energy_repulsive:           32.047020

@<TRIPOS>MOLECULE
ZINC000110375116
 55 56 1 0 0
SMALL
USER_CHARGES


@<TRIPOS>ATOM
      1 C1         -9.2751    0.4065   62.7086 C.3     1  ZINC000110375116   -0.1700
      2 C2        -10.0243   -0.2344   61.5386 C.3     1  ZINC000110375116    0.1000
      3 N3         -9.7743    0.5361   60.3179 N.am    1  ZINC000110375116   -0.6200
      4 C4         -8.4043    0.7097   59.8289 C.3     1  ZINC000110375116    0.1100
      5 C5         -7.6949   -0.6457   59.8073 C.3     1  ZINC000110375116   -0.1700
      6 C6        -10.8047    1.0854   59.6448 C.2     1  ZINC000110375116    0.5100
      7 O7        -11.9388    0.9430   60.0504 O.2     1  ZINC000110375116   -0.5300
      8 C8        -10.5476    1.8765   58.3881 C.3     1  ZINC000110375116   -0.1400
      9 C9        -10.3827    0.9181   57.2069 C.3     1  ZINC000110375116   -0.0900
     10 C10        -9.6643    1.6371   56.0633 C.3     1  ZINC000110375116   -0.1400
     11 C11        -9.3730    0.6558   54.9573 C.2     1  ZINC000110375116    0.5200
     12 O12        -9.6487   -0.5168   55.0988 O.2     1  ZINC000110375116   -0.5300
     13 N13        -8.8061    1.0811   53.8109 N.am    1  ZINC000110375116   -0.6200
     14 C14        -8.4626    2.4982   53.6272 C.3     1  ZINC000110375116    0.0900
     15 C15        -6.9747    2.5994   53.2690 C.3     1  ZINC000110375116    0.1000
     16 N16        -6.6885    1.6544   52.1805 N.am    1  ZINC000110375116   -1.0000
     17 S17        -5.9910    2.1769   50.7724 S.o2    1  ZINC000110375116    2.7000
     18 O18        -5.7137    1.0128   50.0059 O.2     1  ZINC000110375116   -0.9400
     19 O19        -6.7974    3.2462   50.2977 O.2     1  ZINC000110375116   -0.9500
     20 C20        -4.4305    2.8792   51.1926 C.ar    1  ZINC000110375116   -0.7400
     21 C21        -3.2617    2.1598   50.9973 C.ar    1  ZINC000110375116    0.0200
     22 C22        -2.0564    2.7527   51.3420 C.ar    1  ZINC000110375116   -0.1900
     23 C23        -2.0605    4.0319   51.8648 C.ar    1  ZINC000110375116    0.1500
     24 N24        -3.1922    4.6867   52.0369 N.ar    1  ZINC000110375116   -0.4900
     25 C25        -4.3559    4.1565   51.7156 C.ar    1  ZINC000110375116    0.2000
     26 C26        -7.0320    0.2373   52.3642 C.3     1  ZINC000110375116    0.1000
     27 C27        -8.5147    0.1352   52.7246 C.3     1  ZINC000110375116    0.1000
     28 H28        -9.4611   -0.1667   63.6169 H       1  ZINC000110375116    0.0700
     29 H29        -8.2062    0.4132   62.4957 H       1  ZINC000110375116    0.0600
     30 H30        -9.6244    1.4297   62.8469 H       1  ZINC000110375116    0.0600
     31 H31        -9.6750   -1.2576   61.4003 H       1  ZINC000110375116    0.0800
     32 H32       -11.0933   -0.2410   61.7516 H       1  ZINC000110375116    0.0800
     33 H33        -8.4280    1.1235   58.8208 H       1  ZINC000110375116    0.0800
     34 H34        -7.8666    1.3909   60.4886 H       1  ZINC000110375116    0.0800
     35 H35        -6.6756   -0.5165   59.4435 H       1  ZINC000110375116    0.0700
     36 H36        -7.6711   -1.0594   60.8155 H       1  ZINC000110375116    0.0500
     37 H37        -8.2325   -1.3267   59.1476 H       1  ZINC000110375116    0.0600
     38 H38       -11.3889    2.5434   58.2001 H       1  ZINC000110375116    0.0900
     39 H39        -9.6377    2.4644   58.5087 H       1  ZINC000110375116    0.0900
     40 H40        -9.7954    0.0545   57.5190 H       1  ZINC000110375116    0.0800
     41 H41       -11.3643    0.5868   56.8681 H       1  ZINC000110375116    0.0800
     42 H42       -10.2987    2.4370   55.6815 H       1  ZINC000110375116    0.1000
     43 H43        -8.7287    2.0591   56.4303 H       1  ZINC000110375116    0.1000
     44 H44        -9.0626    2.9184   52.8201 H       1  ZINC000110375116    0.0800
     45 H45        -8.6543    3.0438   54.5512 H       1  ZINC000110375116    0.1000
     46 H46        -6.7452    3.6137   52.9427 H       1  ZINC000110375116    0.1100
     47 H47        -6.3706    2.3474   54.1405 H       1  ZINC000110375116    0.0800
     48 H48        -3.2891    1.1612   50.5869 H       1  ZINC000110375116    0.1500
     49 H49        -1.1264    2.2215   51.2039 H       1  ZINC000110375116    0.1500
     50 H50        -1.1261    4.5005   52.1362 H       1  ZINC000110375116    0.1700
     51 H51        -5.2619    4.7234   51.8708 H       1  ZINC000110375116    0.1700
     52 H52        -6.8403   -0.3084   51.4402 H       1  ZINC000110375116    0.1100
     53 H53        -6.4320   -0.1829   53.1713 H       1  ZINC000110375116    0.0800
     54 H54        -8.7428   -0.8796   53.0507 H       1  ZINC000110375116    0.1100
     55 H55        -9.1210    0.3875   51.8546 H       1  ZINC000110375116    0.0800
@<TRIPOS>BOND
     1     1     2    1
     2     1    28    1
     3     1    29    1
     4     1    30    1
     5     2     3    1
     6     2    31    1
     7     2    32    1
     8     3     4    1
     9     3     6   am
    10     4     5    1
    11     4    33    1
    12     4    34    1
    13     5    35    1
    14     5    36    1
    15     5    37    1
    16     6     7    2
    17     6     8    1
    18     8     9    1
    19     8    38    1
    20     8    39    1
    21     9    10    1
    22     9    40    1
    23     9    41    1
    24    10    11    1
    25    10    42    1
    26    10    43    1
    27    11    12    2
    28    11    13   am
    29    13    27    1
    30    13    14    1
    31    14    15    1
    32    14    44    1
    33    14    45    1
    34    15    16    1
    35    15    46    1
    36    15    47    1
    37    16    17   am
    38    16    26    1
    39    17    18    2
    40    17    19    2
    41    17    20    1
    42    20    25   ar
    43    20    21   ar
    44    21    22   ar
    45    21    48    1
    46    22    23   ar
    47    22    49    1
    48    23    24   ar
    49    23    50    1
    50    24    25   ar
    51    25    51    1
    52    26    27    1
    53    26    52    1
    54    26    53    1
    55    27    54    1
    56    27    55    1
@<TRIPOS>SUBSTRUCTURE
     1 ZINC000110375116        1 TEMP              0 ****  ****    0 ROOT


##########                                Name:    ZINC000766421809
##########                DOCK_Rotatable_Bonds:                   7
##########                         Heavy_Atoms:                  26
##########                    Molecular_Weight:             358.372
##########                DOCK_Rotatable_Bonds:                   7
##########                       Formal_Charge:         4.61936e-07
##########                     HBond_Acceptors:                   8
##########                        HBond_Donors:                   0
##########                         Heavy_Atoms:                  26
##########                          Grid_Score:          -33.319775
##########                     Grid_vdw_energy:          -32.712082
##########                      Grid_es_energy:           -0.607692
##########           Internal_energy_repulsive:            5.981013

@<TRIPOS>MOLECULE
ZINC000766421809
 45 47 1 0 0
SMALL
USER_CHARGES


@<TRIPOS>ATOM
      1 C1        -13.2714    0.8903   56.4712 C.3     1  ZINC000766421809   -0.0700
      2 C2        -12.5709    0.6151   55.1656 C.2     1  ZINC000766421809    0.0700
      3 N3        -13.0599    0.8330   53.9718 N.2     1  ZINC000766421809   -0.2900
      4 N4        -12.0997    0.4458   53.0282 N.pl3   1  ZINC000766421809   -0.3700
      5 C5        -12.2421    0.5231   51.5722 C.3     1  ZINC000766421809    0.1000
      6 C6        -11.0204   -0.0110   53.6972 C.2     1  ZINC000766421809    0.0700
      7 C7         -9.7478   -0.5320   53.0807 C.3     1  ZINC000766421809    0.1400
      8 O8         -8.7986    0.5572   52.9366 O.3     1  ZINC000766421809   -0.3400
      9 C9         -7.5948    0.2528   52.4264 C.2     1  ZINC000766421809    0.4700
     10 O10        -7.3366   -0.8889   52.1272 O.2     1  ZINC000766421809   -0.5000
     11 C11        -6.5656    1.3354   52.2267 C.3     1  ZINC000766421809   -0.1100
     12 C12        -5.7104    1.0063   51.0014 C.3     1  ZINC000766421809   -0.0200
     13 C13        -4.4153    1.7735   51.0720 C.2     1  ZINC000766421809    0.1900
     14 N14        -3.2774    1.4311   50.5212 N.2     1  ZINC000766421809   -0.4700
     15 C15        -2.4057    2.4118   50.8487 C.2     1  ZINC000766421809    0.2200
     16 C16        -0.9756    2.4853   50.4598 C.ar    1  ZINC000766421809   -0.0300
     17 C17        -0.0642    3.1563   51.2726 C.ar    1  ZINC000766421809   -0.0500
     18 C18         1.2648    3.2219   50.9075 C.ar    1  ZINC000766421809   -0.1500
     19 C19         1.6933    2.6222   49.7343 C.ar    1  ZINC000766421809    0.1200
     20 F20         2.9954    2.6892   49.3803 F       1  ZINC000766421809   -0.1300
     21 C21         0.7902    1.9535   48.9233 C.ar    1  ZINC000766421809   -0.1200
     22 C22         1.2624    1.3023   47.6489 C.3     1  ZINC000766421809   -0.1200
     23 C23        -0.5392    1.8786   49.2834 C.ar    1  ZINC000766421809   -0.0600
     24 N24        -3.0594    3.2835   51.5719 N.2     1  ZINC000766421809   -0.3700
     25 O25        -4.2135    2.9342   51.7035 O.3     1  ZINC000766421809    0.0900
     26 C26       -11.2834    0.0880   55.0209 C.2     1  ZINC000766421809   -0.2400
     27 H27       -13.0501    1.9074   56.7949 H       1  ZINC000766421809    0.0800
     28 H28       -14.3473    0.7778   56.3372 H       1  ZINC000766421809    0.0700
     29 H29       -12.9235    0.1851   57.2260 H       1  ZINC000766421809    0.0800
     30 H30       -11.8835    1.4913   51.2229 H       1  ZINC000766421809    0.0800
     31 H31       -11.6568   -0.2704   51.1073 H       1  ZINC000766421809    0.0900
     32 H32       -13.2918    0.4056   51.3030 H       1  ZINC000766421809    0.0900
     33 H33        -9.3218   -1.3026   53.7233 H       1  ZINC000766421809    0.0900
     34 H34        -9.9660   -0.9561   52.1006 H       1  ZINC000766421809    0.0900
     35 H35        -7.0678    2.2905   52.0733 H       1  ZINC000766421809    0.1200
     36 H36        -5.9280    1.3976   53.1086 H       1  ZINC000766421809    0.1200
     37 H37        -5.4989   -0.0628   50.9825 H       1  ZINC000766421809    0.1200
     38 H38        -6.2496    1.2860   50.0963 H       1  ZINC000766421809    0.1200
     39 H39        -0.3976    3.6246   52.1870 H       1  ZINC000766421809    0.1500
     40 H40         1.9718    3.7417   51.5369 H       1  ZINC000766421809    0.1500
     41 H41         1.5602    0.2743   47.8549 H       1  ZINC000766421809    0.0800
     42 H42         0.4542    1.3068   46.9174 H       1  ZINC000766421809    0.0800
     43 H43         2.1142    1.8549   47.2525 H       1  ZINC000766421809    0.0700
     44 H44        -1.2423    1.3573   48.6507 H       1  ZINC000766421809    0.1400
     45 H45       -10.6190   -0.1958   55.8237 H       1  ZINC000766421809    0.1500
@<TRIPOS>BOND
     1     1     2    1
     2     1    27    1
     3     1    28    1
     4     1    29    1
     5     2    26    1
     6     2     3    2
     7     3     4    1
     8     4     5    1
     9     4     6    1
    10     5    30    1
    11     5    31    1
    12     5    32    1
    13     6     7    1
    14     6    26    2
    15     7     8    1
    16     7    33    1
    17     7    34    1
    18     8     9    1
    19     9    10    2
    20     9    11    1
    21    11    12    1
    22    11    35    1
    23    11    36    1
    24    12    13    1
    25    12    37    1
    26    12    38    1
    27    13    25    1
    28    13    14    2
    29    14    15    1
    30    15    16    1
    31    15    24    2
    32    16    23   ar
    33    16    17   ar
    34    17    18   ar
    35    17    39    1
    36    18    19   ar
    37    18    40    1
    38    19    20    1
    39    19    21   ar
    40    21    22    1
    41    21    23   ar
    42    22    41    1
    43    22    42    1
    44    22    43    1
    45    23    44    1
    46    24    25    1
    47    26    45    1
@<TRIPOS>SUBSTRUCTURE
     1 ZINC000766421809        1 TEMP              0 ****  ****    0 ROOT


##########                                Name:    ZINC001169875900
##########                DOCK_Rotatable_Bonds:                   9
##########                         Heavy_Atoms:                  24
##########                    Molecular_Weight:             329.399
##########                DOCK_Rotatable_Bonds:                   9
##########                       Formal_Charge:          -0.0500002
##########                     HBond_Acceptors:                   6
##########                        HBond_Donors:                   1
##########                         Heavy_Atoms:                  24
##########                          Grid_Score:          -33.276051
##########                     Grid_vdw_energy:          -32.773407
##########                      Grid_es_energy:           -0.502645
##########           Internal_energy_repulsive:            8.397587

@<TRIPOS>MOLECULE
ZINC001169875900
 47 48 1 0 0
SMALL
USER_CHARGES


@<TRIPOS>ATOM
      1 C1          3.6419    0.3139   45.3633 C.3     1  ZINC001169875900   -0.1500
      2 C2          4.3111   -0.1777   46.6484 C.3     1  ZINC001169875900   -0.1300
      3 C3          3.3457   -0.0083   47.8232 C.3     1  ZINC001169875900    0.0700
      4 O4          2.9334    1.3573   47.9078 O.3     1  ZINC001169875900   -0.3100
      5 C5          1.8051    1.6177   48.6168 C.ar    1  ZINC001169875900    0.2700
      6 N6          0.6231    1.4354   48.0536 N.ar    1  ZINC001169875900   -0.5000
      7 C7         -0.4998    1.6811   48.7019 C.ar    1  ZINC001169875900    0.0600
      8 C8         -0.4769    2.1377   50.0110 C.ar    1  ZINC001169875900    0.1400
      9 N9         -1.6718    2.3969   50.6925 N.pl3   1  ZINC001169875900   -0.7400
     10 C10        -2.9415    1.8946   50.1616 C.3     1  ZINC001169875900    0.1800
     11 C11        -4.0320    2.1109   51.1791 C.ar    1  ZINC001169875900    0.1000
     12 C12        -3.9925    3.2297   51.9959 C.ar    1  ZINC001169875900   -0.1200
     13 C13        -4.9977    3.4247   52.9304 C.ar    1  ZINC001169875900   -0.0800
     14 C14        -6.0136    2.4858   53.0142 C.ar    1  ZINC001169875900   -0.1000
     15 C15        -5.9894    1.3845   52.1608 C.ar    1  ZINC001169875900    0.0900
     16 C16        -7.0674    0.3723   52.2377 C.2     1  ZINC001169875900    0.5200
     17 O17        -7.0236   -0.6161   51.5337 O.2     1  ZINC001169875900   -0.5000
     18 O18        -8.0965    0.5478   53.0886 O.3     1  ZINC001169875900   -0.3300
     19 C19        -9.1500   -0.4510   53.0639 C.3     1  ZINC001169875900    0.0600
     20 C20       -10.2088   -0.1015   54.1116 C.3     1  ZINC001169875900   -0.1500
     21 N21        -5.0108    1.2381   51.2759 N.ar    1  ZINC001169875900   -0.4200
     22 C22         0.7514    2.3360   50.6394 C.ar    1  ZINC001169875900   -0.1200
     23 C23         1.9065    2.0673   49.9270 C.ar    1  ZINC001169875900   -0.1000
     24 C24         3.2583    2.2659   50.5628 C.3     1  ZINC001169875900   -0.1000
     25 H25         3.3803    1.3667   45.4697 H       1  ZINC001169875900    0.0600
     26 H26         4.3297    0.1932   44.5264 H       1  ZINC001169875900    0.0600
     27 H27         2.7390   -0.2679   45.1783 H       1  ZINC001169875900    0.0600
     28 H28         5.2141    0.4043   46.8333 H       1  ZINC001169875900    0.0700
     29 H29         4.5728   -1.2305   46.5420 H       1  ZINC001169875900    0.0700
     30 H30         3.8456   -0.2948   48.7485 H       1  ZINC001169875900    0.0600
     31 H31         2.4726   -0.6426   47.6704 H       1  ZINC001169875900    0.0600
     32 H32        -1.4471    1.5252   48.2071 H       1  ZINC001169875900    0.1500
     33 H33        -1.6591    2.9089   51.5162 H       1  ZINC001169875900    0.4000
     34 H34        -3.1889    2.4294   49.2446 H       1  ZINC001169875900    0.0800
     35 H35        -2.8501    0.8297   49.9478 H       1  ZINC001169875900    0.0800
     36 H36        -3.1863    3.9425   51.9054 H       1  ZINC001169875900    0.1500
     37 H37        -4.9893    4.2888   53.5782 H       1  ZINC001169875900    0.1500
     38 H38        -6.8125    2.6059   53.7310 H       1  ZINC001169875900    0.1500
     39 H39        -9.6093   -0.4701   52.0756 H       1  ZINC001169875900    0.0700
     40 H40        -8.7274   -1.4305   53.2871 H       1  ZINC001169875900    0.0700
     41 H41        -9.7495   -0.0823   55.0999 H       1  ZINC001169875900    0.0700
     42 H42       -10.6315    0.8781   53.8882 H       1  ZINC001169875900    0.0700
     43 H43       -10.9997   -0.8513   54.0930 H       1  ZINC001169875900    0.0800
     44 H44         0.8003    2.6911   51.6581 H       1  ZINC001169875900    0.1400
     45 H45         3.5674    1.3436   51.0547 H       1  ZINC001169875900    0.0700
     46 H46         3.1995    3.0680   51.2985 H       1  ZINC001169875900    0.0700
     47 H47         3.9857    2.5296   49.7950 H       1  ZINC001169875900    0.0700
@<TRIPOS>BOND
     1     1     2    1
     2     1    25    1
     3     1    26    1
     4     1    27    1
     5     2     3    1
     6     2    28    1
     7     2    29    1
     8     3     4    1
     9     3    30    1
    10     3    31    1
    11     4     5    1
    12     5    23   ar
    13     5     6   ar
    14     6     7   ar
    15     7     8   ar
    16     7    32    1
    17     8     9    1
    18     8    22   ar
    19     9    10    1
    20     9    33    1
    21    10    11    1
    22    10    34    1
    23    10    35    1
    24    11    21   ar
    25    11    12   ar
    26    12    13   ar
    27    12    36    1
    28    13    14   ar
    29    13    37    1
    30    14    15   ar
    31    14    38    1
    32    15    16    1
    33    15    21   ar
    34    16    17    2
    35    16    18    1
    36    18    19    1
    37    19    20    1
    38    19    39    1
    39    19    40    1
    40    20    41    1
    41    20    42    1
    42    20    43    1
    43    22    23   ar
    44    22    44    1
    45    23    24    1
    46    24    45    1
    47    24    46    1
    48    24    47    1
@<TRIPOS>SUBSTRUCTURE
     1 ZINC001169875900        1 TEMP              0 ****  ****    0 ROOT


##########                                Name:    ZINC000462219577
##########                DOCK_Rotatable_Bonds:                   8
##########                         Heavy_Atoms:                  31
##########                    Molecular_Weight:             418.539
##########                DOCK_Rotatable_Bonds:                   8
##########                       Formal_Charge:         -0.00999914
##########                     HBond_Acceptors:                   6
##########                        HBond_Donors:                   2
##########                         Heavy_Atoms:                  31
##########                          Grid_Score:          -33.230202
##########                     Grid_vdw_energy:          -31.703033
##########                      Grid_es_energy:           -1.527168
##########           Internal_energy_repulsive:           21.596558

@<TRIPOS>MOLECULE
ZINC000462219577
 61 64 1 0 0
SMALL
USER_CHARGES


@<TRIPOS>ATOM
      1 C1         -8.0624    1.0024   64.1594 C.3     1  ZINC000462219577   -0.0700
      2 C2         -8.9356    0.8652   62.9388 C.2     1  ZINC000462219577    0.0800
      3 N3        -10.0118    0.1264   62.8448 N.2     1  ZINC000462219577   -0.2900
      4 N4        -10.5322    0.2728   61.5525 N.pl3   1  ZINC000462219577   -0.3200
      5 C5        -11.6814   -0.3532   61.0499 C.ar    1  ZINC000462219577    0.1500
      6 C6        -11.5825   -1.2356   59.9827 C.ar    1  ZINC000462219577   -0.1100
      7 C7        -12.7166   -1.8508   59.4897 C.ar    1  ZINC000462219577   -0.1000
      8 C8        -13.9497   -1.5882   60.0578 C.ar    1  ZINC000462219577   -0.1200
      9 C9        -14.0514   -0.7094   61.1206 C.ar    1  ZINC000462219577   -0.1000
     10 C10       -12.9200   -0.0963   61.6221 C.ar    1  ZINC000462219577   -0.1300
     11 C11        -9.7297    1.1254   60.8757 C.2     1  ZINC000462219577    0.0900
     12 C12        -9.9105    1.5717   59.4478 C.3     1  ZINC000462219577   -0.0800
     13 C13        -9.1043    0.6584   58.5220 C.3     1  ZINC000462219577    0.1700
     14 H14        -9.7505   -0.1304   58.1371 H       1  ZINC000462219577    0.1000
     15 C15        -7.9468    0.0337   59.3036 C.3     1  ZINC000462219577   -0.1600
     16 N16        -8.5722    1.4426   57.4049 N.am    1  ZINC000462219577   -0.7400
     17 C17        -8.7498    1.0175   56.1383 C.2     1  ZINC000462219577    0.7100
     18 O18        -9.3529   -0.0160   55.9228 O.2     1  ZINC000462219577   -0.5800
     19 N19        -8.2588    1.7381   55.1105 N.am    1  ZINC000462219577   -0.7400
     20 C20        -8.4534    1.2770   53.7337 C.3     1  ZINC000462219577    0.1600
     21 H21        -8.8793    0.2736   53.7420 H       1  ZINC000462219577    0.1000
     22 C22        -9.4036    2.2309   53.0032 C.3     1  ZINC000462219577   -0.1700
     23 C23        -8.7630    3.6194   52.9297 C.3     1  ZINC000462219577    0.0700
     24 O24        -7.5002    3.5255   52.2675 O.3     1  ZINC000462219577   -0.3700
     25 C25        -6.5547    2.6840   52.9309 C.3     1  ZINC000462219577    0.1400
     26 H26        -6.3795    3.0586   53.9395 H       1  ZINC000462219577    0.0600
     27 C27        -5.2579    2.6824   52.1631 C.ar    1  ZINC000462219577   -0.0900
     28 C28        -4.0777    3.0199   52.7990 C.ar    1  ZINC000462219577   -0.0900
     29 C29        -2.8883    3.0184   52.0947 C.ar    1  ZINC000462219577   -0.1200
     30 C30        -2.8789    2.6792   50.7547 C.ar    1  ZINC000462219577   -0.1200
     31 C31        -4.0589    2.3410   50.1190 C.ar    1  ZINC000462219577   -0.1200
     32 C32        -5.2478    2.3382   50.8244 C.ar    1  ZINC000462219577   -0.1100
     33 C33        -7.1061    1.2558   53.0051 C.3     1  ZINC000462219577   -0.1500
     34 C34        -8.7389    1.5103   61.7130 C.2     1  ZINC000462219577   -0.2600
     35 H35        -8.4267    1.8239   64.7762 H       1  ZINC000462219577    0.0800
     36 H36        -8.0919    0.0762   64.7333 H       1  ZINC000462219577    0.0700
     37 H37        -7.0370    1.2064   63.8514 H       1  ZINC000462219577    0.0800
     38 H38       -10.6198   -1.4406   59.5381 H       1  ZINC000462219577    0.1300
     39 H39       -12.6403   -2.5374   58.6596 H       1  ZINC000462219577    0.1300
     40 H40       -14.8351   -2.0702   59.6703 H       1  ZINC000462219577    0.1300
     41 H41       -15.0159   -0.5058   61.5617 H       1  ZINC000462219577    0.1300
     42 H42       -13.0001    0.5900   62.4523 H       1  ZINC000462219577    0.1300
     43 H43       -10.9661    1.5188   59.1813 H       1  ZINC000462219577    0.0900
     44 H44        -9.5599    2.5983   59.3408 H       1  ZINC000462219577    0.1100
     45 H45        -7.3007    0.8226   59.6887 H       1  ZINC000462219577    0.0600
     46 H46        -8.3427   -0.5498   60.1348 H       1  ZINC000462219577    0.0700
     47 H47        -7.3724   -0.6169   58.6441 H       1  ZINC000462219577    0.0700
     48 H48        -8.0921    2.2677   57.5767 H       1  ZINC000462219577    0.3900
     49 H49        -7.7767    2.5620   55.2825 H       1  ZINC000462219577    0.3900
     50 H50        -9.5872    1.8605   51.9947 H       1  ZINC000462219577    0.0800
     51 H51       -10.3463    2.2930   53.5468 H       1  ZINC000462219577    0.0800
     52 H52        -9.4161    4.2919   52.3734 H       1  ZINC000462219577    0.1000
     53 H53        -8.6168    4.0062   53.9382 H       1  ZINC000462219577    0.0500
     54 H54        -4.0851    3.2848   53.8459 H       1  ZINC000462219577    0.1300
     55 H55        -1.9663    3.2825   52.5914 H       1  ZINC000462219577    0.1200
     56 H56        -1.9497    2.6787   50.2043 H       1  ZINC000462219577    0.1200
     57 H57        -4.0515    2.0763   49.0720 H       1  ZINC000462219577    0.1200
     58 H58        -6.1697    2.0741   50.3278 H       1  ZINC000462219577    0.1200
     59 H59        -6.4055    0.6227   53.5497 H       1  ZINC000462219577    0.0800
     60 H60        -7.2433    0.8654   51.9967 H       1  ZINC000462219577    0.0900
     61 H61        -7.9340    2.1900   61.4747 H       1  ZINC000462219577    0.1500
@<TRIPOS>BOND
     1     1     2    1
     2     1    35    1
     3     1    36    1
     4     1    37    1
     5     2    34    1
     6     2     3    2
     7     3     4    1
     8     4     5    1
     9     4    11    1
    10     5    10   ar
    11     5     6   ar
    12     6     7   ar
    13     6    38    1
    14     7     8   ar
    15     7    39    1
    16     8     9   ar
    17     8    40    1
    18     9    10   ar
    19     9    41    1
    20    10    42    1
    21    11    12    1
    22    11    34    2
    23    12    13    1
    24    12    43    1
    25    12    44    1
    26    13    14    1
    27    13    15    1
    28    13    16    1
    29    15    45    1
    30    15    46    1
    31    15    47    1
    32    16    17   am
    33    16    48    1
    34    17    18    2
    35    17    19   am
    36    19    20    1
    37    19    49    1
    38    20    21    1
    39    20    33    1
    40    20    22    1
    41    22    23    1
    42    22    50    1
    43    22    51    1
    44    23    24    1
    45    23    52    1
    46    23    53    1
    47    24    25    1
    48    25    26    1
    49    25    27    1
    50    25    33    1
    51    27    32   ar
    52    27    28   ar
    53    28    29   ar
    54    28    54    1
    55    29    30   ar
    56    29    55    1
    57    30    31   ar
    58    30    56    1
    59    31    32   ar
    60    31    57    1
    61    32    58    1
    62    33    59    1
    63    33    60    1
    64    34    61    1
@<TRIPOS>SUBSTRUCTURE
     1 ZINC000462219577        1 TEMP              0 ****  ****    0 ROOT


##########                                Name:    ZINC000506566356
##########                DOCK_Rotatable_Bonds:                  10
##########                         Heavy_Atoms:                  28
##########                    Molecular_Weight:               415.9
##########                DOCK_Rotatable_Bonds:                  10
##########                       Formal_Charge:           0.0199998
##########                     HBond_Acceptors:                   8
##########                        HBond_Donors:                   2
##########                         Heavy_Atoms:                  28
##########                          Grid_Score:          -33.222130
##########                     Grid_vdw_energy:          -31.332289
##########                      Grid_es_energy:           -1.889842
##########           Internal_energy_repulsive:            5.579967

@<TRIPOS>MOLECULE
ZINC000506566356
 46 48 1 0 0
SMALL
USER_CHARGES


@<TRIPOS>ATOM
      1 O1         -6.3056    5.2734   57.0910 O.2     1  ZINC000506566356   -0.5100
      2 C2         -5.7684    4.1919   56.9691 C.2     1  ZINC000506566356    0.5100
      3 N3         -6.5150    3.0716   56.9078 N.am    1  ZINC000506566356   -0.7000
      4 C4         -7.9748    3.1586   56.9945 C.3     1  ZINC000506566356    0.1200
      5 C5         -8.5791    1.7614   56.8398 C.3     1  ZINC000506566356   -0.0900
      6 C6         -8.6998    1.1135   58.1950 C.ar    1  ZINC000506566356   -0.0700
      7 C7         -7.6998    0.2756   58.6517 C.ar    1  ZINC000506566356   -0.1100
      8 C8         -7.8096   -0.3189   59.8952 C.ar    1  ZINC000506566356   -0.1000
      9 C9         -8.9195   -0.0760   60.6819 C.ar    1  ZINC000506566356   -0.1100
     10 C10        -9.9208    0.7626   60.2252 C.ar    1  ZINC000506566356   -0.0300
     11 Cl11      -11.3151    1.0686   61.2132 Cl      1  ZINC000506566356   -0.0700
     12 C12        -9.8078    1.3616   58.9835 C.ar    1  ZINC000506566356   -0.1000
     13 C13        -4.2802    4.1033   56.8807 C.2     1  ZINC000506566356    0.5100
     14 O14        -3.5896    4.9551   57.4011 O.2     1  ZINC000506566356   -0.5000
     15 N15        -3.7041    3.0774   56.2233 N.am    1  ZINC000506566356   -0.6300
     16 C16        -2.3102    2.9944   56.1405 C.ar    1  ZINC000506566356    0.1100
     17 C17        -1.5840    2.4299   57.1794 C.ar    1  ZINC000506566356   -0.0800
     18 C18        -0.2068    2.3492   57.0951 C.ar    1  ZINC000506566356   -0.1400
     19 C19         0.4503    2.8296   55.9776 C.ar    1  ZINC000506566356   -0.0900
     20 C20        -0.2663    3.3940   54.9383 C.ar    1  ZINC000506566356   -0.1900
     21 C21        -1.6472    3.4734   55.0116 C.ar    1  ZINC000506566356    0.1200
     22 O22        -2.3532    4.0280   53.9907 O.3     1  ZINC000506566356   -0.3100
     23 C23        -2.2193    3.4205   52.7042 C.3     1  ZINC000506566356    0.1400
     24 C24        -3.5565    2.8867   52.2591 C.2     1  ZINC000506566356    0.0500
     25 C25        -4.7078    3.2545   52.8293 C.2     1  ZINC000506566356   -0.2300
     26 S26        -6.0147    2.4009   52.0120 S.3     1  ZINC000506566356    0.1400
     27 C27        -4.8830    1.6344   50.9848 C.2     1  ZINC000506566356    0.0200
     28 N28        -3.6868    2.0232   51.2722 N.2     1  ZINC000506566356   -0.4700
     29 H29        -6.0858    2.2076   56.8065 H       1  ZINC000506566356    0.4200
     30 H30        -8.2574    3.5715   57.9628 H       1  ZINC000506566356    0.0800
     31 H31        -8.3480    3.8057   56.2007 H       1  ZINC000506566356    0.0800
     32 H32        -9.5669    1.8411   56.3858 H       1  ZINC000506566356    0.0900
     33 H33        -7.9345    1.1553   56.2033 H       1  ZINC000506566356    0.0900
     34 H34        -6.8326    0.0850   58.0369 H       1  ZINC000506566356    0.1300
     35 H35        -7.0280   -0.9734   60.2515 H       1  ZINC000506566356    0.1300
     36 H36        -9.0055   -0.5411   61.6529 H       1  ZINC000506566356    0.1300
     37 H37       -10.5890    2.0163   58.6265 H       1  ZINC000506566356    0.1300
     38 H38        -4.2561    2.3966   55.8075 H       1  ZINC000506566356    0.4300
     39 H39        -2.0947    2.0541   58.0536 H       1  ZINC000506566356    0.1500
     40 H40         0.3575    1.9099   57.9044 H       1  ZINC000506566356    0.1300
     41 H41         1.5266    2.7642   55.9163 H       1  ZINC000506566356    0.1300
     42 H42         0.2505    3.7690   54.0672 H       1  ZINC000506566356    0.1400
     43 H43        -1.8672    4.1620   51.9871 H       1  ZINC000506566356    0.0900
     44 H44        -1.5022    2.6016   52.7619 H       1  ZINC000506566356    0.0900
     45 H45        -4.8178    3.9517   53.6467 H       1  ZINC000506566356    0.1800
     46 H46        -5.1337    0.9302   50.2052 H       1  ZINC000506566356    0.2100
@<TRIPOS>BOND
     1     1     2    2
     2     2     3   am
     3     2    13    1
     4     3     4    1
     5     3    29    1
     6     4     5    1
     7     4    30    1
     8     4    31    1
     9     5     6    1
    10     5    32    1
    11     5    33    1
    12     6    12   ar
    13     6     7   ar
    14     7     8   ar
    15     7    34    1
    16     8     9   ar
    17     8    35    1
    18     9    10   ar
    19     9    36    1
    20    10    11    1
    21    10    12   ar
    22    12    37    1
    23    13    14    2
    24    13    15   am
    25    15    16    1
    26    15    38    1
    27    16    21   ar
    28    16    17   ar
    29    17    18   ar
    30    17    39    1
    31    18    19   ar
    32    18    40    1
    33    19    20   ar
    34    19    41    1
    35    20    21   ar
    36    20    42    1
    37    21    22    1
    38    22    23    1
    39    23    24    1
    40    23    43    1
    41    23    44    1
    42    24    28    1
    43    24    25    2
    44    25    26    1
    45    25    45    1
    46    26    27    1
    47    27    28    2
    48    27    46    1
@<TRIPOS>SUBSTRUCTURE
     1 ZINC000506566356        1 TEMP              0 ****  ****    0 ROOT


##########                                Name:    ZINC000150894060
##########                DOCK_Rotatable_Bonds:                  10
##########                         Heavy_Atoms:                  27
##########                    Molecular_Weight:              366.42
##########                DOCK_Rotatable_Bonds:                  10
##########                       Formal_Charge:        -6.70552e-07
##########                     HBond_Acceptors:                   7
##########                        HBond_Donors:                   2
##########                         Heavy_Atoms:                  27
##########                          Grid_Score:          -33.202961
##########                     Grid_vdw_energy:          -32.916401
##########                      Grid_es_energy:           -0.286559
##########           Internal_energy_repulsive:           10.335437

@<TRIPOS>MOLECULE
ZINC000150894060
 49 51 1 0 0
SMALL
USER_CHARGES


@<TRIPOS>ATOM
      1 C1          2.3729    2.9431   51.0633 C.3     1  ZINC000150894060   -0.1000
      2 C2          1.6313    2.2726   49.9356 C.2     1  ZINC000150894060   -0.0800
      3 C3          0.2770    2.1564   49.8062 C.2     1  ZINC000150894060   -0.1000
      4 C4         -0.7256    2.6654   50.7479 C.2     1  ZINC000150894060    0.6100
      5 O5         -0.3880    3.3988   51.6584 O.2     1  ZINC000150894060   -0.5100
      6 N6         -2.0206    2.3209   50.6048 N.am    1  ZINC000150894060   -0.7200
      7 C7         -3.0224    2.8308   51.5444 C.3     1  ZINC000150894060    0.1200
      8 C8         -4.4013    2.8077   50.8820 C.3     1  ZINC000150894060   -0.1500
      9 C9         -5.0266    1.4219   51.0543 C.3     1  ZINC000150894060    0.1200
     10 N10        -6.1137    1.4951   52.0336 N.am    1  ZINC000150894060   -0.7300
     11 C11        -6.9191    0.4319   52.2272 C.2     1  ZINC000150894060    0.5600
     12 O12        -6.7425   -0.5882   51.5903 O.2     1  ZINC000150894060   -0.5300
     13 C13        -8.0172    0.5064   53.2143 C.ar    1  ZINC000150894060   -0.1300
     14 C14        -9.0297   -0.4544   53.2102 C.ar    1  ZINC000150894060   -0.0900
     15 C15       -10.0512   -0.3795   54.1344 C.ar    1  ZINC000150894060   -0.0900
     16 C16       -10.0738    0.6454   55.0636 C.ar    1  ZINC000150894060   -0.0800
     17 C17       -11.1931    0.7212   56.0697 C.3     1  ZINC000150894060    0.1700
     18 N18       -10.7306    0.1927   57.3554 N.pl3   1  ZINC000150894060   -0.3700
     19 C19       -10.2600    0.9203   58.3899 C.2     1  ZINC000150894060    0.0500
     20 C20        -9.9399    0.0621   59.3860 C.2     1  ZINC000150894060   -0.2700
     21 C21       -10.2249   -1.2344   58.9452 C.2     1  ZINC000150894060    0.0400
     22 N22       -10.7046   -1.1568   57.7304 N.2     1  ZINC000150894060   -0.2900
     23 C23        -9.0730    1.6007   55.0733 C.ar    1  ZINC000150894060   -0.1100
     24 C24        -8.0429    1.5344   54.1581 C.ar    1  ZINC000150894060   -0.0600
     25 O25         0.0227    1.4913   48.6603 O.3     1  ZINC000150894060   -0.1700
     26 C26         1.1791    1.1825   48.0595 C.2     1  ZINC000150894060    0.0000
     27 C27         2.1987    1.6518   48.8119 C.2     1  ZINC000150894060   -0.2300
     28 H28         2.5196    3.9968   50.8257 H       1  ZINC000150894060    0.0800
     29 H29         1.7934    2.8552   51.9823 H       1  ZINC000150894060    0.0900
     30 H30         3.3419    2.4625   51.1973 H       1  ZINC000150894060    0.0700
     31 H31        -2.2896    1.7354   49.8797 H       1  ZINC000150894060    0.4100
     32 H32        -3.0368    2.2038   52.4358 H       1  ZINC000150894060    0.0800
     33 H33        -2.7708    3.8539   51.8240 H       1  ZINC000150894060    0.0800
     34 H34        -5.0416    3.5558   51.3492 H       1  ZINC000150894060    0.0800
     35 H35        -4.2980    3.0301   49.8199 H       1  ZINC000150894060    0.0800
     36 H36        -5.4217    1.0801   50.0977 H       1  ZINC000150894060    0.0800
     37 H37        -4.2681    0.7222   51.4051 H       1  ZINC000150894060    0.0800
     38 H38        -6.2539    2.3088   52.5428 H       1  ZINC000150894060    0.4000
     39 H39        -9.0136   -1.2545   52.4850 H       1  ZINC000150894060    0.1300
     40 H40       -10.8353   -1.1223   54.1322 H       1  ZINC000150894060    0.1300
     41 H41       -11.5009    1.7596   56.1934 H       1  ZINC000150894060    0.1100
     42 H42       -12.0390    0.1310   55.7174 H       1  ZINC000150894060    0.1000
     43 H43       -10.1568    1.9950   58.4176 H       1  ZINC000150894060    0.1700
     44 H44        -9.5355    0.3308   60.3507 H       1  ZINC000150894060    0.1500
     45 H45       -10.0789   -2.1422   59.5117 H       1  ZINC000150894060    0.1800
     46 H46        -9.0963    2.3980   55.8015 H       1  ZINC000150894060    0.1300
     47 H47        -7.2621    2.2805   54.1670 H       1  ZINC000150894060    0.1400
     48 H48         1.2800    0.6499   47.1254 H       1  ZINC000150894060    0.2100
     49 H49         3.2524    1.5605   48.5931 H       1  ZINC000150894060    0.1600
@<TRIPOS>BOND
     1     1     2    1
     2     1    28    1
     3     1    29    1
     4     1    30    1
     5     2    27    1
     6     2     3    2
     7     3     4    1
     8     3    25    1
     9     4     5    2
    10     4     6   am
    11     6     7    1
    12     6    31    1
    13     7     8    1
    14     7    32    1
    15     7    33    1
    16     8     9    1
    17     8    34    1
    18     8    35    1
    19     9    10    1
    20     9    36    1
    21     9    37    1
    22    10    11   am
    23    10    38    1
    24    11    12    2
    25    11    13    1
    26    13    24   ar
    27    13    14   ar
    28    14    15   ar
    29    14    39    1
    30    15    16   ar
    31    15    40    1
    32    16    17    1
    33    16    23   ar
    34    17    18    1
    35    17    41    1
    36    17    42    1
    37    18    22    1
    38    18    19    1
    39    19    20    2
    40    19    43    1
    41    20    21    1
    42    20    44    1
    43    21    22    2
    44    21    45    1
    45    23    24   ar
    46    23    46    1
    47    24    47    1
    48    25    26    1
    49    26    27    2
    50    26    48    1
    51    27    49    1
@<TRIPOS>SUBSTRUCTURE
     1 ZINC000150894060        1 TEMP              0 ****  ****    0 ROOT


##########                                Name:    ZINC000535362552
##########                DOCK_Rotatable_Bonds:                   5
##########                         Heavy_Atoms:                  26
##########                    Molecular_Weight:             416.228
##########                DOCK_Rotatable_Bonds:                   5
##########                       Formal_Charge:         -0.00999981
##########                     HBond_Acceptors:                   6
##########                        HBond_Donors:                   1
##########                         Heavy_Atoms:                  26
##########                          Grid_Score:          -33.202663
##########                     Grid_vdw_energy:          -30.439756
##########                      Grid_es_energy:           -2.762907
##########           Internal_energy_repulsive:           21.248812

@<TRIPOS>MOLECULE
ZINC000535362552
 40 43 1 0 0
SMALL
USER_CHARGES


@<TRIPOS>ATOM
      1 C1         -6.4734    1.3031   66.5656 C.3     1  ZINC000535362552    0.0300
      2 O2         -7.0262    0.1782   67.2984 O.3     1  ZINC000535362552   -0.3400
      3 C3         -8.0602   -0.4746   66.7296 C.2     1  ZINC000535362552    0.5500
      4 O4         -8.6243   -1.3649   67.3357 O.2     1  ZINC000535362552   -0.4800
      5 C5         -8.5044   -0.1104   65.3787 C.2     1  ZINC000535362552   -0.0100
      6 C6         -9.3405   -0.8507   64.6041 C.2     1  ZINC000535362552   -0.0900
      7 C7         -9.5021   -0.1060   63.3561 C.ar    1  ZINC000535362552   -0.1300
      8 C8        -10.2197   -0.3272   62.1784 C.ar    1  ZINC000535362552   -0.0600
      9 C9        -10.1564    0.6021   61.1571 C.ar    1  ZINC000535362552    0.1200
     10 N10       -10.8734    0.3886   59.9724 N.am    1  ZINC000535362552   -0.6700
     11 C11       -10.5633   -0.6532   59.1755 C.2     1  ZINC000535362552    0.5200
     12 O12        -9.6635   -1.4059   59.4838 O.2     1  ZINC000535362552   -0.5000
     13 C13       -11.3345   -0.8828   57.9014 C.3     1  ZINC000535362552   -0.1000
     14 H14       -11.5683    0.0637   57.4138 H       1  ZINC000535362552    0.1300
     15 C15       -10.5577   -1.8195   56.9461 C.3     1  ZINC000535362552    0.0600
     16 O16       -11.6049   -2.5971   56.3414 O.3     1  ZINC000535362552   -0.2900
     17 C17       -12.6568   -2.6791   57.2020 C.ar    1  ZINC000535362552    0.1300
     18 C18       -13.7183   -3.5797   57.2314 C.ar    1  ZINC000535362552   -0.1300
     19 C19       -14.6937   -3.4729   58.2013 C.ar    1  ZINC000535362552   -0.0500
     20 C20       -14.6267   -2.4709   59.1525 C.ar    1  ZINC000535362552   -0.1200
     21 Br21      -15.9699   -2.3269   60.4757 Br      1  ZINC000535362552   -0.0400
     22 C22       -13.5720   -1.5739   59.1322 C.ar    1  ZINC000535362552   -0.0100
     23 C23       -12.5958   -1.6813   58.1678 C.ar    1  ZINC000535362552   -0.1600
     24 C24        -9.3811    1.7513   61.3030 C.ar    1  ZINC000535362552   -0.0900
     25 C25        -8.6699    1.9769   62.4606 C.ar    1  ZINC000535362552   -0.0900
     26 C26        -8.7201    1.0556   63.5002 C.ar    1  ZINC000535362552    0.0700
     27 O27        -8.1491    1.0130   64.7207 O.3     1  ZINC000535362552   -0.1700
     28 H28        -7.2480    2.0553   66.4161 H       1  ZINC000535362552    0.0700
     29 H29        -5.6501    1.7372   67.1330 H       1  ZINC000535362552    0.1100
     30 H30        -6.1070    0.9614   65.5976 H       1  ZINC000535362552    0.0700
     31 H31        -9.7932   -1.7976   64.8586 H       1  ZINC000535362552    0.1800
     32 H32       -10.8197   -1.2181   62.0665 H       1  ZINC000535362552    0.1400
     33 H33       -11.5930    0.9905   59.7259 H       1  ZINC000535362552    0.4100
     34 H34       -10.0203   -1.2435   56.1927 H       1  ZINC000535362552    0.1200
     35 H35        -9.8743   -2.4597   57.5042 H       1  ZINC000535362552    0.0900
     36 H36       -13.7782   -4.3649   56.4923 H       1  ZINC000535362552    0.1400
     37 H37       -15.5141   -4.1752   58.2178 H       1  ZINC000535362552    0.1400
     38 H38       -13.5154   -0.7898   59.8728 H       1  ZINC000535362552    0.1400
     39 H39        -9.3374    2.4720   60.4998 H       1  ZINC000535362552    0.1500
     40 H40        -8.0725    2.8709   62.5609 H       1  ZINC000535362552    0.1500
@<TRIPOS>BOND
     1     1     2    1
     2     1    28    1
     3     1    29    1
     4     1    30    1
     5     2     3    1
     6     3     4    2
     7     3     5    1
     8     5    27    1
     9     5     6    2
    10     6     7    1
    11     6    31    1
    12     7    26   ar
    13     7     8   ar
    14     8     9   ar
    15     8    32    1
    16     9    10    1
    17     9    24   ar
    18    10    11   am
    19    10    33    1
    20    11    12    2
    21    11    13    1
    22    13    14    1
    23    13    23    1
    24    13    15    1
    25    15    16    1
    26    15    34    1
    27    15    35    1
    28    16    17    1
    29    17    23   ar
    30    17    18   ar
    31    18    19   ar
    32    18    36    1
    33    19    20   ar
    34    19    37    1
    35    20    21    1
    36    20    22   ar
    37    22    23   ar
    38    22    38    1
    39    24    25   ar
    40    24    39    1
    41    25    26   ar
    42    25    40    1
    43    26    27    1
@<TRIPOS>SUBSTRUCTURE
     1 ZINC000535362552        1 TEMP              0 ****  ****    0 ROOT


##########                                Name:    ZINC001282645012
##########                DOCK_Rotatable_Bonds:                   9
##########                         Heavy_Atoms:                  27
##########                    Molecular_Weight:             372.511
##########                DOCK_Rotatable_Bonds:                   9
##########                       Formal_Charge:          -0.0200004
##########                     HBond_Acceptors:                   6
##########                        HBond_Donors:                   1
##########                         Heavy_Atoms:                  27
##########                          Grid_Score:          -33.181076
##########                     Grid_vdw_energy:          -30.700766
##########                      Grid_es_energy:           -2.480310
##########           Internal_energy_repulsive:           40.449680

@<TRIPOS>MOLECULE
ZINC001282645012
 59 61 1 0 0
SMALL
USER_CHARGES


@<TRIPOS>ATOM
      1 C1        -13.0485   -1.8006   59.6271 C.2     1  ZINC001282645012   -0.1900
      2 C2        -12.1186   -2.6035   59.1725 C.2     1  ZINC001282645012   -0.1300
      3 C3        -11.6662   -2.4973   57.7389 C.3     1  ZINC001282645012   -0.0500
      4 C4        -10.4806   -3.4362   57.5074 C.3     1  ZINC001282645012   -0.1500
      5 C5        -12.8171   -2.8905   56.8106 C.3     1  ZINC001282645012   -0.1400
      6 C6        -11.2481   -1.0790   57.4478 C.2     1  ZINC001282645012    0.5500
      7 O7        -11.6845   -0.5064   56.4719 O.2     1  ZINC001282645012   -0.5300
      8 N8        -10.3893   -0.4469   58.2721 N.am    1  ZINC001282645012   -0.6300
      9 C9         -9.8173    0.9413   58.2181 C.3     1  ZINC001282645012    0.1200
     10 H10       -10.1349    1.5539   57.3745 H       1  ZINC001282645012    0.1300
     11 C11        -8.2904    0.6383   58.2919 C.3     1  ZINC001282645012   -0.1300
     12 C12        -8.2167   -0.6253   59.1841 C.3     1  ZINC001282645012   -0.1300
     13 C13        -9.7143   -0.9115   59.5314 C.3     1  ZINC001282645012    0.1200
     14 H14        -9.9385   -1.9321   59.8416 H       1  ZINC001282645012    0.1200
     15 C15       -10.1151    0.2027   60.5447 C.3     1  ZINC001282645012    0.1300
     16 H16       -11.0872   -0.0131   60.9880 H       1  ZINC001282645012    0.1000
     17 N17        -9.0947    0.3443   61.5863 N.am    1  ZINC001282645012   -0.7100
     18 C18        -9.4471    0.2940   62.8862 C.2     1  ZINC001282645012    0.5100
     19 O19       -10.6092    0.1331   63.1937 O.2     1  ZINC001282645012   -0.5100
     20 C20        -8.3972    0.4379   63.9576 C.3     1  ZINC001282645012    0.1200
     21 H21        -7.4403    0.0781   63.5793 H       1  ZINC001282645012    0.1300
     22 C22        -8.2688    1.9107   64.3515 C.3     1  ZINC001282645012   -0.1100
     23 C23        -9.6098    2.4134   64.8899 C.3     1  ZINC001282645012   -0.1000
     24 C24        -9.3690    3.2909   66.1199 C.3     1  ZINC001282645012   -0.1500
     25 C25       -10.3181    3.2331   63.8095 C.3     1  ZINC001282645012   -0.1500
     26 N26        -8.7855   -0.3493   65.1307 N.pl3   1  ZINC001282645012   -0.4500
     27 C27        -9.4756   -1.5313   65.1234 C.2     1  ZINC001282645012   -0.0600
     28 C28        -9.6166   -1.9081   66.4086 C.2     1  ZINC001282645012   -0.0200
     29 N29        -9.0288   -0.9813   67.1796 N.2     1  ZINC001282645012   -0.4900
     30 C30        -8.5244   -0.0471   66.4206 C.2     1  ZINC001282645012    0.1900
     31 C31       -10.2098    1.4810   59.6265 C.3     1  ZINC001282645012   -0.1400
     32 H32       -13.4909   -1.0624   58.9745 H       1  ZINC001282645012    0.1000
     33 H33       -13.3759   -1.8797   60.6532 H       1  ZINC001282645012    0.1000
     34 H34       -11.6762   -3.3417   59.8251 H       1  ZINC001282645012    0.1100
     35 H35       -10.7830   -4.4621   57.7179 H       1  ZINC001282645012    0.0700
     36 H36       -10.1535   -3.3594   56.4704 H       1  ZINC001282645012    0.0700
     37 H37        -9.6607   -3.1562   58.1687 H       1  ZINC001282645012    0.0600
     38 H38       -13.6617   -2.2216   56.9756 H       1  ZINC001282645012    0.0600
     39 H39       -12.4898   -2.8137   55.7737 H       1  ZINC001282645012    0.0700
     40 H40       -13.1195   -3.9163   57.0211 H       1  ZINC001282645012    0.0700
     41 H41        -7.8916    0.4310   57.2989 H       1  ZINC001282645012    0.0800
     42 H42        -7.7564    1.4675   58.7559 H       1  ZINC001282645012    0.0800
     43 H43        -7.7814   -1.4592   58.6334 H       1  ZINC001282645012    0.0700
     44 H44        -7.6462   -0.4227   60.0903 H       1  ZINC001282645012    0.0800
     45 H45        -8.1655    0.4742   61.3404 H       1  ZINC001282645012    0.4000
     46 H46        -7.5055    2.0154   65.1225 H       1  ZINC001282645012    0.0900
     47 H47        -7.9853    2.4971   63.4775 H       1  ZINC001282645012    0.0800
     48 H48       -10.2322    1.5625   65.1669 H       1  ZINC001282645012    0.0700
     49 H49        -8.7466    4.1418   65.8429 H       1  ZINC001282645012    0.0600
     50 H50       -10.3243    3.6490   66.5034 H       1  ZINC001282645012    0.0600
     51 H51        -8.8643    2.7069   66.8895 H       1  ZINC001282645012    0.0500
     52 H52       -10.5663    2.5869   62.9674 H       1  ZINC001282645012    0.0600
     53 H53       -11.2322    3.6623   64.2198 H       1  ZINC001282645012    0.0600
     54 H54        -9.6606    4.0340   63.4715 H       1  ZINC001282645012    0.0600
     55 H55        -9.8376   -2.0602   64.2541 H       1  ZINC001282645012    0.1700
     56 H56       -10.1157   -2.8001   66.7574 H       1  ZINC001282645012    0.1700
     57 H57        -7.9921    0.8264   66.7672 H       1  ZINC001282645012    0.2000
     58 H58        -9.4882    2.2345   59.9418 H       1  ZINC001282645012    0.0900
     59 H59       -11.2210    1.8878   59.6378 H       1  ZINC001282645012    0.0900
@<TRIPOS>BOND
     1     1     2    2
     2     1    32    1
     3     1    33    1
     4     2     3    1
     5     2    34    1
     6     3     4    1
     7     3     5    1
     8     3     6    1
     9     4    35    1
    10     4    36    1
    11     4    37    1
    12     5    38    1
    13     5    39    1
    14     5    40    1
    15     6     7    2
    16     6     8   am
    17     8    13    1
    18     8     9    1
    19     9    10    1
    20     9    31    1
    21     9    11    1
    22    11    12    1
    23    11    41    1
    24    11    42    1
    25    12    13    1
    26    12    43    1
    27    12    44    1
    28    13    14    1
    29    13    15    1
    30    15    16    1
    31    15    17    1
    32    15    31    1
    33    17    18   am
    34    17    45    1
    35    18    19    2
    36    18    20    1
    37    20    21    1
    38    20    22    1
    39    20    26    1
    40    22    23    1
    41    22    46    1
    42    22    47    1
    43    23    24    1
    44    23    25    1
    45    23    48    1
    46    24    49    1
    47    24    50    1
    48    24    51    1
    49    25    52    1
    50    25    53    1
    51    25    54    1
    52    26    30    1
    53    26    27    1
    54    27    28    2
    55    27    55    1
    56    28    29    1
    57    28    56    1
    58    29    30    2
    59    30    57    1
    60    31    58    1
    61    31    59    1
@<TRIPOS>SUBSTRUCTURE
     1 ZINC001282645012        1 TEMP              0 ****  ****    0 ROOT


##########                                Name:    ZINC000541252362
##########                DOCK_Rotatable_Bonds:                   5
##########                         Heavy_Atoms:                  27
##########                    Molecular_Weight:             401.254
##########                DOCK_Rotatable_Bonds:                   5
##########                       Formal_Charge:          -0.0199999
##########                     HBond_Acceptors:                   9
##########                        HBond_Donors:                   1
##########                         Heavy_Atoms:                  27
##########                          Grid_Score:          -33.163349
##########                     Grid_vdw_energy:          -31.936804
##########                      Grid_es_energy:           -1.226544
##########           Internal_energy_repulsive:            3.573584

@<TRIPOS>MOLECULE
ZINC000541252362
 41 44 1 0 0
SMALL
USER_CHARGES


@<TRIPOS>ATOM
      1 C1         -8.7983   -0.2243   60.8475 C.3     1  ZINC000541252362    0.1000
      2 N2         -8.5665    0.4275   59.5561 N.pl3   1  ZINC000541252362   -0.3800
      3 C3         -7.8593    1.5507   59.3370 C.2     1  ZINC000541252362    0.2600
      4 N4         -7.8849    1.8083   58.0561 N.2     1  ZINC000541252362   -0.5300
      5 C5         -8.6000    0.8711   57.4194 C.2     1  ZINC000541252362    0.2700
      6 C6         -8.8547    0.8217   55.9582 C.ar    1  ZINC000541252362    0.0000
      7 C7         -9.6423   -0.1943   55.4204 C.ar    1  ZINC000541252362   -0.1000
      8 C8         -9.8788   -0.2389   54.0607 C.ar    1  ZINC000541252362   -0.1000
      9 C9         -9.3361    0.7219   53.2291 C.ar    1  ZINC000541252362   -0.1300
     10 C10        -8.5494    1.7387   53.7568 C.ar    1  ZINC000541252362    0.1400
     11 N11        -8.0013    2.7101   52.9115 N.am    1  ZINC000541252362   -0.6800
     12 C12        -6.9522    2.4031   52.1232 C.2     1  ZINC000541252362    0.5100
     13 O13        -6.4829    1.2849   52.1464 O.2     1  ZINC000541252362   -0.4900
     14 C14        -6.3620    3.4491   51.2130 C.3     1  ZINC000541252362   -0.0600
     15 C15        -4.8665    3.2744   51.1502 C.2     1  ZINC000541252362    0.0700
     16 C16        -4.2053    2.4281   50.3301 C.2     1  ZINC000541252362   -0.0700
     17 N17        -2.8699    2.5766   50.5876 N.pl3   1  ZINC000541252362   -0.3500
     18 C18        -1.7566    1.9832   50.0641 C.2     1  ZINC000541252362    0.0700
     19 C19        -0.5259    2.3184   50.5070 C.2     1  ZINC000541252362   -0.0500
     20 Cl20        0.8757    1.5517   49.8277 Cl      1  ZINC000541252362   -0.0200
     21 C21        -0.3746    3.2857   51.5153 C.2     1  ZINC000541252362   -0.0900
     22 C22        -1.4759    3.8849   52.0451 C.2     1  ZINC000541252362    0.0200
     23 Cl23       -1.3087    5.0824   53.2908 Cl      1  ZINC000541252362   -0.0100
     24 C24        -2.7542    3.5231   51.5717 C.2     1  ZINC000541252362    0.2200
     25 N25        -3.9735    3.9342   51.8913 N.2     1  ZINC000541252362   -0.4300
     26 C26        -8.3120    1.7936   55.1217 C.ar    1  ZINC000541252362   -0.0800
     27 N27        -9.0337   -0.0008   58.3030 N.2     1  ZINC000541252362   -0.3100
     28 H28        -8.0021   -0.9434   61.0396 H       1  ZINC000541252362    0.0800
     29 H29        -8.8076    0.5270   61.6371 H       1  ZINC000541252362    0.0900
     30 H30        -9.7576   -0.7413   60.8265 H       1  ZINC000541252362    0.0900
     31 H31        -7.3568    2.1389   60.0906 H       1  ZINC000541252362    0.2200
     32 H32       -10.0676   -0.9474   56.0673 H       1  ZINC000541252362    0.1300
     33 H33       -10.4896   -1.0271   53.6459 H       1  ZINC000541252362    0.1300
     34 H34        -9.5233    0.6824   52.1662 H       1  ZINC000541252362    0.1300
     35 H35        -8.3766    3.6044   52.8931 H       1  ZINC000541252362    0.4100
     36 H36        -6.7828    3.3401   50.2134 H       1  ZINC000541252362    0.1200
     37 H37        -6.5961    4.4411   51.5995 H       1  ZINC000541252362    0.1200
     38 H38        -4.6482    1.7591   49.6071 H       1  ZINC000541252362    0.1900
     39 H39        -1.8618    1.2386   49.2888 H       1  ZINC000541252362    0.1800
     40 H40         0.6107    3.5521   51.8683 H       1  ZINC000541252362    0.1600
     41 H41        -7.7012    2.5831   55.5340 H       1  ZINC000541252362    0.1500
@<TRIPOS>BOND
     1     1     2    1
     2     1    28    1
     3     1    29    1
     4     1    30    1
     5     2    27    1
     6     2     3    1
     7     3     4    2
     8     3    31    1
     9     4     5    1
    10     5     6    1
    11     5    27    2
    12     6    26   ar
    13     6     7   ar
    14     7     8   ar
    15     7    32    1
    16     8     9   ar
    17     8    33    1
    18     9    10   ar
    19     9    34    1
    20    10    11    1
    21    10    26   ar
    22    11    12   am
    23    11    35    1
    24    12    13    2
    25    12    14    1
    26    14    15    1
    27    14    36    1
    28    14    37    1
    29    15    25    1
    30    15    16    2
    31    16    17    1
    32    16    38    1
    33    17    24    1
    34    17    18    1
    35    18    19    2
    36    18    39    1
    37    19    20    1
    38    19    21    1
    39    21    22    2
    40    21    40    1
    41    22    23    1
    42    22    24    1
    43    24    25    2
    44    26    41    1
@<TRIPOS>SUBSTRUCTURE
     1 ZINC000541252362        1 TEMP              0 ****  ****    0 ROOT


##########                                Name:    ZINC001060578637
##########                DOCK_Rotatable_Bonds:                  10
##########                         Heavy_Atoms:                  25
##########                    Molecular_Weight:             345.401
##########                DOCK_Rotatable_Bonds:                  10
##########                       Formal_Charge:          -0.0400001
##########                     HBond_Acceptors:                   8
##########                        HBond_Donors:                   3
##########                         Heavy_Atoms:                  25
##########                          Grid_Score:          -33.136703
##########                     Grid_vdw_energy:          -30.818895
##########                      Grid_es_energy:           -2.317808
##########           Internal_energy_repulsive:           15.415174

@<TRIPOS>MOLECULE
ZINC001060578637
 48 49 1 0 0
SMALL
USER_CHARGES


@<TRIPOS>ATOM
      1 C1          3.8322   -0.0848   50.5701 C.3     1  ZINC001060578637   -0.1500
      2 C2          2.5837   -0.3745   49.7347 C.3     1  ZINC001060578637   -0.1300
      3 C3          2.1679    0.8916   48.9830 C.3     1  ZINC001060578637    0.0700
      4 H4          1.4112    0.6408   48.2397 H       1  ZINC001060578637    0.0900
      5 O5          3.3080    1.4544   48.3309 O.3     1  ZINC001060578637   -0.3600
      6 C6          3.0149    2.6085   47.5406 C.3     1  ZINC001060578637    0.0300
      7 C7          1.6023    1.8918   49.9580 C.2     1  ZINC001060578637    0.5000
      8 O8          2.3476    2.6009   50.6003 O.2     1  ZINC001060578637   -0.5200
      9 N9          0.2680    1.9983   50.1162 N.am    1  ZINC001060578637   -0.7300
     10 C10        -0.2819    2.9719   51.0628 C.3     1  ZINC001060578637    0.1600
     11 C11        -1.7630    2.7408   51.2174 C.ar    1  ZINC001060578637   -0.1100
     12 C12        -2.4025    3.1130   52.3850 C.ar    1  ZINC001060578637   -0.0900
     13 C13        -3.7612    2.9011   52.5268 C.ar    1  ZINC001060578637   -0.1100
     14 C14        -4.4804    2.3174   51.5007 C.ar    1  ZINC001060578637   -0.0900
     15 C15        -5.9614    2.0859   51.6553 C.3     1  ZINC001060578637    0.1800
     16 H16        -6.2352    1.1489   51.1700 H       1  ZINC001060578637    0.1000
     17 C17        -6.7286    3.2395   51.0062 C.3     1  ZINC001060578637   -0.1600
     18 N18        -6.2987    2.0151   53.0791 N.am    1  ZINC001060578637   -0.7000
     19 C19        -7.4736    1.4810   53.4677 C.2     1  ZINC001060578637    0.6100
     20 O20        -8.2543    1.0593   52.6363 O.2     1  ZINC001060578637   -0.5300
     21 C21        -7.8123    1.4082   54.9009 C.2     1  ZINC001060578637    0.1200
     22 N22        -8.9335    0.9538   55.4187 N.2     1  ZINC001060578637   -0.2400
     23 N23        -8.8794    1.0410   56.7004 N.2     1  ZINC001060578637   -0.2900
     24 C24        -7.7291    1.5519   57.0660 C.2     1  ZINC001060578637    0.1900
     25 N25        -7.0166    1.7957   55.9482 N.pl3   1  ZINC001060578637   -0.5500
     26 C26        -3.8411    1.9465   50.3325 C.ar    1  ZINC001060578637   -0.1100
     27 C27        -2.4833    2.1619   50.1892 C.ar    1  ZINC001060578637   -0.0900
     28 H28         4.1466   -0.9947   51.0812 H       1  ZINC001060578637    0.0600
     29 H29         4.6340    0.2608   49.9175 H       1  ZINC001060578637    0.0500
     30 H30         3.6057    0.6859   51.3069 H       1  ZINC001060578637    0.0600
     31 H31         2.8014   -1.1670   49.0187 H       1  ZINC001060578637    0.0800
     32 H32         1.7726   -0.6904   50.3909 H       1  ZINC001060578637    0.0800
     33 H33         3.9418    3.0209   47.1419 H       1  ZINC001060578637    0.0900
     34 H34         2.3584    2.3276   46.7171 H       1  ZINC001060578637    0.0500
     35 H35         2.5210    3.3571   48.1601 H       1  ZINC001060578637    0.0400
     36 H36        -0.3280    1.4303   49.6035 H       1  ZINC001060578637    0.4000
     37 H37         0.2070    2.8546   52.0299 H       1  ZINC001060578637    0.0800
     38 H38        -0.1088    3.9807   50.6881 H       1  ZINC001060578637    0.0800
     39 H39        -1.8407    3.5691   53.1867 H       1  ZINC001060578637    0.1300
     40 H40        -4.2606    3.1912   53.4393 H       1  ZINC001060578637    0.1300
     41 H41        -6.4547    4.1764   51.4914 H       1  ZINC001060578637    0.0600
     42 H42        -6.4776    3.2922   49.9467 H       1  ZINC001060578637    0.0700
     43 H43        -7.7998    3.0720   51.1180 H       1  ZINC001060578637    0.0700
     44 H44        -5.6765    2.3526   53.7423 H       1  ZINC001060578637    0.4100
     45 H45        -7.4085    1.7398   58.0800 H       1  ZINC001060578637    0.2300
     46 H46        -6.1249    2.1736   55.8952 H       1  ZINC001060578637    0.4400
     47 H47        -4.4032    1.4908   49.5307 H       1  ZINC001060578637    0.1300
     48 H48        -1.9838    1.8721   49.2766 H       1  ZINC001060578637    0.1300
@<TRIPOS>BOND
     1     1     2    1
     2     1    28    1
     3     1    29    1
     4     1    30    1
     5     2     3    1
     6     2    31    1
     7     2    32    1
     8     3     4    1
     9     3     5    1
    10     3     7    1
    11     5     6    1
    12     6    33    1
    13     6    34    1
    14     6    35    1
    15     7     8    2
    16     7     9   am
    17     9    10    1
    18     9    36    1
    19    10    11    1
    20    10    37    1
    21    10    38    1
    22    11    27   ar
    23    11    12   ar
    24    12    13   ar
    25    12    39    1
    26    13    14   ar
    27    13    40    1
    28    14    15    1
    29    14    26   ar
    30    15    16    1
    31    15    17    1
    32    15    18    1
    33    17    41    1
    34    17    42    1
    35    17    43    1
    36    18    19   am
    37    18    44    1
    38    19    20    2
    39    19    21    1
    40    21    25    1
    41    21    22    2
    42    22    23    1
    43    23    24    2
    44    24    25    1
    45    24    45    1
    46    25    46    1
    47    26    27   ar
    48    26    47    1
    49    27    48    1
@<TRIPOS>SUBSTRUCTURE
     1 ZINC001060578637        1 TEMP              0 ****  ****    0 ROOT


##########                                Name:    ZINC001090961577
##########                DOCK_Rotatable_Bonds:                   9
##########                         Heavy_Atoms:                  24
##########                    Molecular_Weight:             352.458
##########                DOCK_Rotatable_Bonds:                   9
##########                       Formal_Charge:                0.02
##########                     HBond_Acceptors:                   8
##########                        HBond_Donors:                   1
##########                         Heavy_Atoms:                  24
##########                          Grid_Score:          -33.135471
##########                     Grid_vdw_energy:          -32.637909
##########                      Grid_es_energy:           -0.497563
##########           Internal_energy_repulsive:            7.243744

@<TRIPOS>MOLECULE
ZINC001090961577
 48 49 1 0 0
SMALL
USER_CHARGES


@<TRIPOS>ATOM
      1 C1        -13.1820    0.3428   50.9171 C.3     1  ZINC001090961577   -0.1400
      2 C2        -12.3206    1.1436   51.8958 C.3     1  ZINC001090961577   -0.0900
      3 S3        -10.8402    0.1858   52.3218 S.3     1  ZINC001090961577   -0.2700
      4 C4         -9.9480    1.2929   53.4482 C.3     1  ZINC001090961577   -0.0700
      5 C5         -8.6991    0.5845   53.9767 C.3     1  ZINC001090961577   -0.1200
      6 C6         -7.7445    0.3328   52.8381 C.2     1  ZINC001090961577    0.5400
      7 O7         -7.7610   -0.7315   52.2569 O.2     1  ZINC001090961577   -0.5300
      8 N8         -6.8724    1.2905   52.4657 N.am    1  ZINC001090961577   -0.6200
      9 C9         -6.7454    2.6199   53.0807 C.3     1  ZINC001090961577    0.1100
     10 C10        -5.6048    3.3569   52.3477 C.3     1  ZINC001090961577   -0.1100
     11 H11        -6.0029    4.0003   51.5631 H       1  ZINC001090961577    0.0900
     12 C12        -4.7622    4.1678   53.3343 C.3     1  ZINC001090961577   -0.1400
     13 C13        -4.7764    2.1955   51.7375 C.3     1  ZINC001090961577    0.1500
     14 H14        -4.0889    1.7776   52.4729 H       1  ZINC001090961577    0.1200
     15 N15        -4.0560    2.6365   50.5406 N.pl3   1  ZINC001090961577   -0.6700
     16 C16        -2.6786    2.5805   50.5049 C.ar    1  ZINC001090961577    0.5900
     17 N17        -2.0852    1.9634   49.4913 N.ar    1  ZINC001090961577   -0.5700
     18 C18        -0.7698    1.8879   49.4203 C.ar    1  ZINC001090961577    0.2700
     19 C19         0.0002    2.4713   50.4358 C.ar    1  ZINC001090961577   -0.3000
     20 C20         1.4728    2.4118   50.3975 C.2     1  ZINC001090961577    0.5300
     21 O21         2.1298    3.3299   50.8467 O.2     1  ZINC001090961577   -0.5100
     22 O22         2.0900    1.3392   49.8645 O.3     1  ZINC001090961577   -0.3600
     23 C23         3.5343    1.4086   49.7309 C.3     1  ZINC001090961577    0.0400
     24 C24        -0.6664    3.1134   51.4883 C.ar    1  ZINC001090961577    0.2600
     25 N25        -1.9854    3.1498   51.4826 N.ar    1  ZINC001090961577   -0.5700
     26 C26        -5.8833    1.1762   51.3785 C.3     1  ZINC001090961577    0.0900
     27 H27       -14.0716    0.9184   50.6612 H       1  ZINC001090961577    0.0700
     28 H28       -12.6092    0.1378   50.0128 H       1  ZINC001090961577    0.0700
     29 H29       -13.4789   -0.5981   51.3804 H       1  ZINC001090961577    0.0700
     30 H30       -12.0237    2.0846   51.4326 H       1  ZINC001090961577    0.0800
     31 H31       -12.8935    1.3486   52.8003 H       1  ZINC001090961577    0.0800
     32 H32        -9.6544    2.1960   52.9131 H       1  ZINC001090961577    0.0900
     33 H33       -10.5952    1.5599   54.2837 H       1  ZINC001090961577    0.0900
     34 H34        -8.2148    1.2118   54.7250 H       1  ZINC001090961577    0.1000
     35 H35        -8.9842   -0.3656   54.4285 H       1  ZINC001090961577    0.1000
     36 H36        -7.6779    3.1723   52.9654 H       1  ZINC001090961577    0.0800
     37 H37        -6.5012    2.5174   54.1381 H       1  ZINC001090961577    0.0800
     38 H38        -4.3496    3.5022   54.0924 H       1  ZINC001090961577    0.0600
     39 H39        -3.9486    4.6583   52.7998 H       1  ZINC001090961577    0.0600
     40 H40        -5.3881    4.9206   53.8134 H       1  ZINC001090961577    0.0700
     41 H41        -4.5480    2.9680   49.7730 H       1  ZINC001090961577    0.4200
     42 H42        -0.2937    1.3836   48.5923 H       1  ZINC001090961577    0.1800
     43 H43         3.9031    0.4827   49.2893 H       1  ZINC001090961577    0.1100
     44 H44         3.7998    2.2484   49.0888 H       1  ZINC001090961577    0.0700
     45 H45         3.9838    1.5466   50.7142 H       1  ZINC001090961577    0.0700
     46 H46        -0.1088    3.5750   52.2898 H       1  ZINC001090961577    0.1800
     47 H47        -5.4721    0.1675   51.3396 H       1  ZINC001090961577    0.0900
     48 H48        -6.3436    1.4362   50.4252 H       1  ZINC001090961577    0.0800
@<TRIPOS>BOND
     1     1     2    1
     2     1    27    1
     3     1    28    1
     4     1    29    1
     5     2     3    1
     6     2    30    1
     7     2    31    1
     8     3     4    1
     9     4     5    1
    10     4    32    1
    11     4    33    1
    12     5     6    1
    13     5    34    1
    14     5    35    1
    15     6     7    2
    16     6     8   am
    17     8    26    1
    18     8     9    1
    19     9    10    1
    20     9    36    1
    21     9    37    1
    22    10    11    1
    23    10    12    1
    24    10    13    1
    25    12    38    1
    26    12    39    1
    27    12    40    1
    28    13    14    1
    29    13    15    1
    30    13    26    1
    31    15    16    1
    32    15    41    1
    33    16    25   ar
    34    16    17   ar
    35    17    18   ar
    36    18    19   ar
    37    18    42    1
    38    19    20    1
    39    19    24   ar
    40    20    21    2
    41    20    22    1
    42    22    23    1
    43    23    43    1
    44    23    44    1
    45    23    45    1
    46    24    25   ar
    47    24    46    1
    48    26    47    1
    49    26    48    1
@<TRIPOS>SUBSTRUCTURE
     1 ZINC001090961577        1 TEMP              0 ****  ****    0 ROOT


##########                                Name:    ZINC000007167963
##########                DOCK_Rotatable_Bonds:                   8
##########                         Heavy_Atoms:                  25
##########                    Molecular_Weight:             378.433
##########                DOCK_Rotatable_Bonds:                   8
##########                       Formal_Charge:        -1.01328e-06
##########                     HBond_Acceptors:                  10
##########                        HBond_Donors:                   3
##########                         Heavy_Atoms:                  25
##########                          Grid_Score:          -33.133427
##########                     Grid_vdw_energy:          -32.558479
##########                      Grid_es_energy:           -0.574949
##########           Internal_energy_repulsive:            7.356437

@<TRIPOS>MOLECULE
ZINC000007167963
 39 41 1 0 0
SMALL
USER_CHARGES


@<TRIPOS>ATOM
      1 C1          1.0874    3.4218   51.1513 C.3     1  ZINC000007167963   -0.0800
      2 C2          0.8517    2.5997   49.9104 C.2     1  ZINC000007167963    0.0900
      3 C3         -0.3430    2.0834   49.5126 C.2     1  ZINC000007167963   -0.1500
      4 C4         -1.6452    2.2152   50.1992 C.2     1  ZINC000007167963    0.2600
      5 N5         -1.9327    3.0551   51.1635 N.2     1  ZINC000007167963   -0.2700
      6 N6         -3.1577    2.8928   51.5212 N.2     1  ZINC000007167963   -0.2800
      7 C7         -3.7016    1.9424   50.7994 C.2     1  ZINC000007167963    0.1200
      8 S8         -5.3605    1.3610   50.9200 S.3     1  ZINC000007167963    0.1500
      9 C9         -6.0946    2.7041   51.8862 C.3     1  ZINC000007167963   -0.1200
     10 H10        -5.3866    3.0340   52.6464 H       1  ZINC000007167963    0.1400
     11 C11        -6.4302    3.8745   50.9597 C.3     1  ZINC000007167963   -0.1500
     12 C12        -7.3543    2.2135   52.5522 C.2     1  ZINC000007167963    0.5300
     13 O13        -8.3962    2.8143   52.3961 O.2     1  ZINC000007167963   -0.4900
     14 N14        -7.3230    1.1070   53.3211 N.am    1  ZINC000007167963   -0.6100
     15 C15        -8.4825    0.6547   53.9325 C.2     1  ZINC000007167963    0.0800
     16 C16        -8.8658    0.9739   55.2093 C.2     1  ZINC000007167963   -0.2400
     17 C17        -8.0875    1.8437   56.0966 C.2     1  ZINC000007167963    0.5900
     18 N18        -8.2784    3.1777   56.0700 N.am    1  ZINC000007167963   -0.8400
     19 O19        -7.2690    1.3612   56.8572 O.2     1  ZINC000007167963   -0.5600
     20 C20       -10.1206    0.3619   55.5875 C.2     1  ZINC000007167963   -0.0900
     21 C21       -10.6476   -0.3836   54.6266 C.2     1  ZINC000007167963   -0.2800
     22 S22        -9.6301   -0.3686   53.1972 S.3     1  ZINC000007167963    0.3000
     23 O23        -2.7604    1.4960   49.9445 O.3     1  ZINC000007167963   -0.2000
     24 C24        -0.0697    1.3688   48.2589 C.2     1  ZINC000007167963   -0.1800
     25 C25         1.2440    1.5205   48.0246 C.2     1  ZINC000007167963   -0.0300
     26 O26         1.7823    2.2575   49.0079 O.3     1  ZINC000007167963   -0.1700
     27 H27         2.1396    3.7006   51.2080 H       1  ZINC000007167963    0.0800
     28 H28         0.4745    4.3224   51.1122 H       1  ZINC000007167963    0.1000
     29 H29         0.8185    2.8372   52.0310 H       1  ZINC000007167963    0.1000
     30 H30        -5.5191    4.2294   50.4780 H       1  ZINC000007167963    0.0900
     31 H31        -7.1383    3.5447   50.1995 H       1  ZINC000007167963    0.0800
     32 H32        -6.8722    4.6833   51.5415 H       1  ZINC000007167963    0.0800
     33 H33        -6.4894    0.6273   53.4468 H       1  ZINC000007167963    0.4400
     34 H34        -7.7625    3.7531   56.6563 H       1  ZINC000007167963    0.4000
     35 H35        -8.9315    3.5622   55.4648 H       1  ZINC000007167963    0.4100
     36 H36       -10.5810    0.4978   56.5549 H       1  ZINC000007167963    0.1500
     37 H37       -11.5791   -0.9237   54.7106 H       1  ZINC000007167963    0.1700
     38 H38        -0.7806    0.8302   47.6497 H       1  ZINC000007167963    0.1600
     39 H39         1.7801    1.1174   47.1781 H       1  ZINC000007167963    0.2200
@<TRIPOS>BOND
     1     1     2    1
     2     1    27    1
     3     1    28    1
     4     1    29    1
     5     2    26    1
     6     2     3    2
     7     3     4    1
     8     3    24    1
     9     4    23    1
    10     4     5    2
    11     5     6    1
    12     6     7    2
    13     7     8    1
    14     7    23    1
    15     8     9    1
    16     9    10    1
    17     9    11    1
    18     9    12    1
    19    11    30    1
    20    11    31    1
    21    11    32    1
    22    12    13    2
    23    12    14   am
    24    14    15    1
    25    14    33    1
    26    15    22    1
    27    15    16    2
    28    16    17    1
    29    16    20    1
    30    17    18   am
    31    17    19    2
    32    18    34    1
    33    18    35    1
    34    20    21    2
    35    20    36    1
    36    21    22    1
    37    21    37    1
    38    24    25    2
    39    24    38    1
    40    25    26    1
    41    25    39    1
@<TRIPOS>SUBSTRUCTURE
     1 ZINC000007167963        1 TEMP              0 ****  ****    0 ROOT


##########                                Name:    ZINC000563265674
##########                DOCK_Rotatable_Bonds:                   7
##########                         Heavy_Atoms:                  25
##########                    Molecular_Weight:             386.859
##########                DOCK_Rotatable_Bonds:                   7
##########                       Formal_Charge:          0.00999963
##########                     HBond_Acceptors:                  10
##########                        HBond_Donors:                   2
##########                         Heavy_Atoms:                  25
##########                          Grid_Score:          -33.094101
##########                     Grid_vdw_energy:          -28.507801
##########                      Grid_es_energy:           -4.586299
##########           Internal_energy_repulsive:           13.279018

@<TRIPOS>MOLECULE
ZINC000563265674
 44 45 1 0 0
SMALL
USER_CHARGES


@<TRIPOS>ATOM
      1 C1         -2.5980    2.7401   64.4140 C.3     1  ZINC000563265674   -0.0600
      2 C2         -1.6064    1.7053   63.9482 C.2     1  ZINC000563265674    0.1700
      3 N3         -0.8944    0.9265   64.7065 N.2     1  ZINC000563265674   -0.3800
      4 O4         -0.1936    0.2058   64.0276 O.3     1  ZINC000563265674    0.0900
      5 C5         -0.3984    0.4643   62.7325 C.2     1  ZINC000563265674    0.1900
      6 C6          0.2744   -0.2110   61.5652 C.3     1  ZINC000563265674    0.2100
      7 C7          1.7919   -0.0691   61.6995 C.3     1  ZINC000563265674   -0.1400
      8 C8         -0.0997   -1.6943   61.5492 C.3     1  ZINC000563265674   -0.1800
      9 N9         -0.1674    0.4191   60.3139 N.3     1  ZINC000563265674   -0.6600
     10 C10         0.5366    1.6883   60.0865 C.3     1  ZINC000563265674    0.0400
     11 C11        -0.1783    2.4748   59.0182 C.2     1  ZINC000563265674    0.5200
     12 O12        -0.2944    3.6774   59.1257 O.2     1  ZINC000563265674   -0.4900
     13 N13        -0.6888    1.8420   57.9433 N.am    1  ZINC000563265674   -0.6700
     14 C14        -1.3529    2.5726   56.9509 C.ar    1  ZINC000563265674    0.1400
     15 C15        -2.7154    2.8147   57.0598 C.ar    1  ZINC000563265674   -0.0300
     16 C16        -3.3681    3.5364   56.0791 C.ar    1  ZINC000563265674   -0.6400
     17 S17        -5.0975    3.8442   56.2171 S.o2    1  ZINC000563265674    2.5000
     18 C18        -5.7145    3.7313   54.5149 C.3     1  ZINC000563265674   -0.6500
     19 O19        -5.5851    2.7612   56.9972 O.2     1  ZINC000563265674   -0.9300
     20 O20        -5.1787    5.1820   56.6891 O.2     1  ZINC000563265674   -0.9300
     21 C21        -2.6660    4.0177   54.9896 C.ar    1  ZINC000563265674   -0.0300
     22 C22        -1.3085    3.7784   54.8771 C.ar    1  ZINC000563265674   -0.1100
     23 C23        -0.6485    3.0621   55.8573 C.ar    1  ZINC000563265674   -0.0200
     24 Cl24        1.0556    2.7624   55.7161 Cl      1  ZINC000563265674   -0.0500
     25 N25        -1.3001    1.4144   62.6714 N.2     1  ZINC000563265674   -0.4700
     26 H26        -3.5830    2.2828   64.5084 H       1  ZINC000563265674    0.0900
     27 H27        -2.2857    3.1332   65.3815 H       1  ZINC000563265674    0.0900
     28 H28        -2.6428    3.5528   63.6889 H       1  ZINC000563265674    0.0900
     29 H29         2.1198   -0.5366   62.6280 H       1  ZINC000563265674    0.0800
     30 H30         2.2786   -0.5575   60.8553 H       1  ZINC000563265674    0.0800
     31 H31         2.0585    0.9876   61.7110 H       1  ZINC000563265674    0.0700
     32 H32        -1.1808   -1.7954   61.4535 H       1  ZINC000563265674    0.0700
     33 H33         0.3869   -2.1827   60.7049 H       1  ZINC000563265674    0.0800
     34 H34         0.2280   -2.1618   62.4777 H       1  ZINC000563265674    0.0800
     35 H35        -0.0464   -0.2066   59.5316 H       1  ZINC000563265674    0.3600
     36 H36         0.5544    2.2647   61.0114 H       1  ZINC000563265674    0.1200
     37 H37         1.5582    1.4847   59.7655 H       1  ZINC000563265674    0.0800
     38 H38        -0.5960    0.8804   57.8573 H       1  ZINC000563265674    0.4200
     39 H39        -3.2649    2.4388   57.9102 H       1  ZINC000563265674    0.1700
     40 H40        -5.5086    2.7369   54.1191 H       1  ZINC000563265674    0.1300
     41 H41        -6.7896    3.9106   54.5056 H       1  ZINC000563265674    0.1400
     42 H42        -5.2161    4.4786   53.8974 H       1  ZINC000563265674    0.1400
     43 H43        -3.1790    4.5816   54.2245 H       1  ZINC000563265674    0.1500
     44 H44        -0.7630    4.1555   54.0247 H       1  ZINC000563265674    0.1500
@<TRIPOS>BOND
     1     1     2    1
     2     1    26    1
     3     1    27    1
     4     1    28    1
     5     2    25    1
     6     2     3    2
     7     3     4    1
     8     4     5    1
     9     5     6    1
    10     5    25    2
    11     6     7    1
    12     6     8    1
    13     6     9    1
    14     7    29    1
    15     7    30    1
    16     7    31    1
    17     8    32    1
    18     8    33    1
    19     8    34    1
    20     9    10    1
    21     9    35    1
    22    10    11    1
    23    10    36    1
    24    10    37    1
    25    11    12    2
    26    11    13   am
    27    13    14    1
    28    13    38    1
    29    14    23   ar
    30    14    15   ar
    31    15    16   ar
    32    15    39    1
    33    16    17    1
    34    16    21   ar
    35    17    18    1
    36    17    19    2
    37    17    20    2
    38    18    40    1
    39    18    41    1
    40    18    42    1
    41    21    22   ar
    42    21    43    1
    43    22    23   ar
    44    22    44    1
    45    23    24    1
@<TRIPOS>SUBSTRUCTURE
     1 ZINC000563265674        1 TEMP              0 ****  ****    0 ROOT


##########                                Name:    ZINC000420486261
##########                DOCK_Rotatable_Bonds:                   7
##########                         Heavy_Atoms:                  26
##########                    Molecular_Weight:             353.378
##########                DOCK_Rotatable_Bonds:                   7
##########                       Formal_Charge:        -2.98023e-08
##########                     HBond_Acceptors:                   7
##########                        HBond_Donors:                   0
##########                         Heavy_Atoms:                  26
##########                          Grid_Score:          -33.077328
##########                     Grid_vdw_energy:          -33.593403
##########                      Grid_es_energy:            0.516076
##########           Internal_energy_repulsive:            6.020772

@<TRIPOS>MOLECULE
ZINC000420486261
 45 47 1 0 0
SMALL
USER_CHARGES


@<TRIPOS>ATOM
      1 C1          1.6419    1.3963   48.3962 C.3     1  ZINC000420486261    0.0400
      2 O2          0.4576    1.7341   49.1655 O.3     1  ZINC000420486261   -0.3500
      3 C3          0.5762    2.7290   50.0652 C.2     1  ZINC000420486261    0.5100
      4 O4          1.6392    3.2996   50.2030 O.2     1  ZINC000420486261   -0.4900
      5 C5         -0.5895    3.1272   50.8865 C.ar    1  ZINC000420486261   -0.0700
      6 C6         -0.4963    4.1799   51.8029 C.ar    1  ZINC000420486261   -0.0900
      7 C7         -1.6080    4.5233   52.5524 C.ar    1  ZINC000420486261    0.1100
      8 N8         -2.7449    3.8760   52.4156 N.ar    1  ZINC000420486261   -0.4200
      9 C9         -2.8822    2.8709   51.5597 C.ar    1  ZINC000420486261    0.1900
     10 C10        -4.1851    2.1780   51.4466 C.2     1  ZINC000420486261    0.2200
     11 N11        -5.1866    2.2444   52.3019 N.2     1  ZINC000420486261   -0.4300
     12 C12        -6.1542    1.4568   51.7868 C.2     1  ZINC000420486261    0.2200
     13 C13        -7.4883    1.2005   52.3823 C.ar    1  ZINC000420486261   -0.0600
     14 C14        -7.8663   -0.0969   52.7195 C.ar    1  ZINC000420486261   -0.0300
     15 C15        -9.1087   -0.3302   53.2734 C.ar    1  ZINC000420486261   -0.1600
     16 C16        -9.9814    0.7204   53.4954 C.ar    1  ZINC000420486261   -0.0600
     17 C17        -9.6167    2.0115   53.1646 C.ar    1  ZINC000420486261   -0.2200
     18 C18        -8.3700    2.2612   52.6131 C.ar    1  ZINC000420486261    0.1700
     19 O19        -8.0102    3.5296   52.2877 O.3     1  ZINC000420486261   -0.2900
     20 C20        -8.8013    4.1954   51.3013 C.3     1  ZINC000420486261    0.0600
     21 C21        -7.9479    4.4650   50.0602 C.3     1  ZINC000420486261   -0.0900
     22 C22        -8.8603    4.6832   48.8516 C.3     1  ZINC000420486261   -0.1500
     23 C23        -7.0963    5.7154   50.2887 C.3     1  ZINC000420486261   -0.1500
     24 N24        -5.6978    0.9615   50.6644 N.2     1  ZINC000420486261   -0.3400
     25 O25        -4.5750    1.3670   50.4513 O.3     1  ZINC000420486261    0.1000
     26 C26        -1.8138    2.4651   50.7626 C.ar    1  ZINC000420486261   -0.0700
     27 H27         1.4097    0.5815   47.7105 H       1  ZINC000420486261    0.1100
     28 H28         1.9669    2.2679   47.8280 H       1  ZINC000420486261    0.0700
     29 H29         2.4383    1.0861   49.0728 H       1  ZINC000420486261    0.0700
     30 H30         0.4321    4.7182   51.9243 H       1  ZINC000420486261    0.1600
     31 H31        -1.5408    5.3354   53.2612 H       1  ZINC000420486261    0.1800
     32 H32        -7.1880   -0.9196   52.5474 H       1  ZINC000420486261    0.1400
     33 H33        -9.4011   -1.3367   53.5341 H       1  ZINC000420486261    0.1300
     34 H34       -10.9522    0.5304   53.9288 H       1  ZINC000420486261    0.1300
     35 H35       -10.3020    2.8275   53.3402 H       1  ZINC000420486261    0.1400
     36 H36        -9.6487    3.5661   51.0298 H       1  ZINC000420486261    0.0600
     37 H37        -9.1649    5.1405   51.7045 H       1  ZINC000420486261    0.0600
     38 H38        -7.2967    3.6109   49.8745 H       1  ZINC000420486261    0.0800
     39 H39        -9.5114    5.5373   49.0373 H       1  ZINC000420486261    0.0600
     40 H40        -8.2524    4.8752   47.9675 H       1  ZINC000420486261    0.0700
     41 H41        -9.4670    3.7924   48.6888 H       1  ZINC000420486261    0.0600
     42 H42        -7.7475    6.5695   50.4745 H       1  ZINC000420486261    0.0500
     43 H43        -6.4464    5.5600   51.1498 H       1  ZINC000420486261    0.0600
     44 H44        -6.4884    5.9075   49.4046 H       1  ZINC000420486261    0.0600
     45 H45        -1.9278    1.6473   50.0665 H       1  ZINC000420486261    0.1600
@<TRIPOS>BOND
     1     1     2    1
     2     1    27    1
     3     1    28    1
     4     1    29    1
     5     2     3    1
     6     3     4    2
     7     3     5    1
     8     5    26   ar
     9     5     6   ar
    10     6     7   ar
    11     6    30    1
    12     7     8   ar
    13     7    31    1
    14     8     9   ar
    15     9    10    1
    16     9    26   ar
    17    10    25    1
    18    10    11    2
    19    11    12    1
    20    12    13    1
    21    12    24    2
    22    13    18   ar
    23    13    14   ar
    24    14    15   ar
    25    14    32    1
    26    15    16   ar
    27    15    33    1
    28    16    17   ar
    29    16    34    1
    30    17    18   ar
    31    17    35    1
    32    18    19    1
    33    19    20    1
    34    20    21    1
    35    20    36    1
    36    20    37    1
    37    21    22    1
    38    21    23    1
    39    21    38    1
    40    22    39    1
    41    22    40    1
    42    22    41    1
    43    23    42    1
    44    23    43    1
    45    23    44    1
    46    24    25    1
    47    26    45    1
@<TRIPOS>SUBSTRUCTURE
     1 ZINC000420486261        1 TEMP              0 ****  ****    0 ROOT


##########                                Name:     oleObject17.pdb
##########                DOCK_Rotatable_Bonds:                   8
##########                         Heavy_Atoms:                  29
##########                    Molecular_Weight:             435.393
##########                DOCK_Rotatable_Bonds:                   8
##########                       Formal_Charge:         0.000400059
##########                     HBond_Acceptors:                   6
##########                        HBond_Donors:                   0
##########                         Heavy_Atoms:                  29
##########                          Grid_Score:          -33.056797
##########                     Grid_vdw_energy:          -32.798737
##########                      Grid_es_energy:           -0.258062
##########           Internal_energy_repulsive:           17.574610

@<TRIPOS>MOLECULE
oleObject17.pdb
 57 59 1 0 0
SMALL
NO_CHARGES


@<TRIPOS>ATOM
      1 C         -10.6161   -1.8502   57.4631 C.3     1  UNL         0.0391
      2 C         -12.0580   -1.9941   57.9546 C.ar    1  UNL        -0.0277
      3 C         -13.1804   -1.7403   57.1264 C.ar    1  UNL        -0.0463
      4 C         -14.4778   -1.8634   57.6617 C.ar    1  UNL        -0.0590
      5 C         -14.6695   -2.2365   58.9999 C.ar    1  UNL        -0.0620
      6 C         -13.5617   -2.5048   59.8147 C.ar    1  UNL        -0.0619
      7 C         -12.2656   -2.3890   59.2910 C.ar    1  UNL        -0.0572
      8 C         -13.0351   -1.3419   55.6618 C.3     1  UNL        -0.0394
      9 N          -9.9321   -0.6710   58.0360 N.am    1  UNL        -0.3003
     10 C          -9.6949    0.4674   57.2660 C.2     1  UNL         0.2175
     11 O         -10.3086    0.6358   56.2260 O.2     1  UNL        -0.2772
     12 C          -8.9698    1.6447   57.9700 C.3     1  UNL         0.0384
     13 C          -9.2772    3.0147   57.3142 C.3     1  UNL        -0.0289
     14 C          -8.6318    3.1286   55.9194 C.3     1  UNL        -0.0010
     15 N          -7.1676    2.9242   55.9729 N.4     1  UNL        -0.3010
     16 C          -6.7468    1.6707   56.6418 C.3     1  UNL        -0.0010
     17 C          -7.4280    1.4635   58.0192 C.3     1  UNL        -0.0289
     18 C          -6.4941    3.1636   54.6760 C.3     1  UNL         0.0222
     19 C          -7.0398    2.2888   53.5234 C.3     1  UNL         0.0661
     20 O          -6.5710    2.8349   52.2790 O.3     1  UNL        -0.3432
     21 C          -5.2397    2.8212   51.9089 C.ar    1  UNL         0.0937
     22 C          -4.3606    3.8732   52.2455 C.ar    1  UNL        -0.0288
     23 C          -3.0116    3.8187   51.8581 C.ar    1  UNL        -0.0408
     24 C          -2.5331    2.7174   51.1312 C.ar    1  UNL         0.0422
     25 C          -3.4018    1.6692   50.7890 C.ar    1  UNL        -0.0221
     26 C          -4.7514    1.7206   51.1759 C.ar    1  UNL         0.0723
     27 CL         -5.8088    0.3919   50.7375 Cl      1  UNL        -0.0814
     28 CL         -0.8511    2.6519   50.6504 Cl      1  UNL        -0.0843
     29 C          -9.5183   -0.7818   59.4467 C.3     1  UNL         0.0031
     30 H         -10.5767   -1.7729   56.3709 H       1  UNL         0.0520
     31 H         -10.0681   -2.7619   57.7323 H       1  UNL         0.0520
     32 H         -15.3459   -1.6682   57.0387 H       1  UNL         0.0626
     33 H         -15.6750   -2.3242   59.4018 H       1  UNL         0.0623
     34 H         -13.7062   -2.7998   60.8500 H       1  UNL         0.0623
     35 H         -11.4143   -2.5950   59.9330 H       1  UNL         0.0626
     36 H         -12.4225   -2.0673   55.1125 H       1  UNL         0.0280
     37 H         -12.5686   -0.3552   55.5625 H       1  UNL         0.0280
     38 H         -14.0075   -1.2942   55.1564 H       1  UNL         0.0280
     39 H          -9.3278    1.6716   59.0060 H       1  UNL         0.0402
     40 H          -8.8847    3.8168   57.9526 H       1  UNL         0.0288
     41 H         -10.3561    3.1843   57.2366 H       1  UNL         0.0288
     42 H          -8.8560    4.1194   55.5037 H       1  UNL         0.0431
     43 H          -9.0912    2.3798   55.2642 H       1  UNL         0.0431
     44 H          -5.6588    1.6779   56.7855 H       1  UNL         0.0431
     45 H          -6.9797    0.8132   56.0007 H       1  UNL         0.0431
     46 H          -7.0103    2.1938   58.7244 H       1  UNL         0.0288
     47 H          -7.1758    0.4710   58.4140 H       1  UNL         0.0288
     48 H          -5.4180    2.9758   54.7817 H       1  UNL         0.0455
     49 H          -6.6128    4.2187   54.3978 H       1  UNL         0.0455
     50 H          -8.1357    2.2963   53.5349 H       1  UNL         0.0586
     51 H          -6.6903    1.2557   53.6380 H       1  UNL         0.0586
     52 H          -4.7091    4.7360   52.8036 H       1  UNL         0.0651
     53 H          -2.3394    4.6308   52.1208 H       1  UNL         0.0639
     54 H          -3.0303    0.8177   50.2260 H       1  UNL         0.0655
     55 H          -9.2264   -1.8144   59.6767 H       1  UNL         0.0433
     56 H         -10.3451   -0.4914   60.1059 H       1  UNL         0.0433
     57 H          -8.6553   -0.1331   59.6407 H       1  UNL         0.0433
@<TRIPOS>BOND
     1     1     2    1
     2     1     9    1
     3     1    30    1
     4     1    31    1
     5     2     3   ar
     6     2     7   ar
     7     3     4   ar
     8     3     8    1
     9     4     5   ar
    10     4    32    1
    11     5     6   ar
    12     5    33    1
    13     6     7   ar
    14     6    34    1
    15     7    35    1
    16     8    36    1
    17     8    37    1
    18     8    38    1
    19     9    10   am
    20     9    29    1
    21    10    11    2
    22    10    12    1
    23    12    13    1
    24    12    17    1
    25    12    39    1
    26    13    14    1
    27    13    40    1
    28    13    41    1
    29    14    15    1
    30    14    42    1
    31    14    43    1
    32    15    16    1
    33    15    18    1
    34    16    17    1
    35    16    44    1
    36    16    45    1
    37    17    46    1
    38    17    47    1
    39    18    19    1
    40    18    48    1
    41    18    49    1
    42    19    20    1
    43    19    50    1
    44    19    51    1
    45    20    21    1
    46    21    22   ar
    47    21    26   ar
    48    22    23   ar
    49    22    52    1
    50    23    24   ar
    51    23    53    1
    52    24    25   ar
    53    24    28    1
    54    25    26   ar
    55    25    54    1
    56    26    27    1
    57    29    55    1
    58    29    56    1
    59    29    57    1
@<TRIPOS>SUBSTRUCTURE
     1 UNL         1 TEMP              0 ****  ****    0 ROOT


##########                                Name:    ZINC000600609084
##########                DOCK_Rotatable_Bonds:                   8
##########                         Heavy_Atoms:                  30
##########                    Molecular_Weight:             422.548
##########                DOCK_Rotatable_Bonds:                   8
##########                       Formal_Charge:           0.0100005
##########                     HBond_Acceptors:                   6
##########                        HBond_Donors:                   2
##########                         Heavy_Atoms:                  30
##########                          Grid_Score:          -33.033222
##########                     Grid_vdw_energy:          -30.588781
##########                      Grid_es_energy:           -2.444439
##########           Internal_energy_repulsive:           20.667898

@<TRIPOS>MOLECULE
ZINC000600609084
 56 59 1 0 0
SMALL
USER_CHARGES


@<TRIPOS>ATOM
      1 O1         -0.9262    3.6010   59.2833 O.2     1  ZINC000600609084   -0.5300
      2 C2         -0.8113    2.5656   58.6622 C.2     1  ZINC000600609084    0.5200
      3 C3         -1.4941    2.4077   57.3280 C.3     1  ZINC000600609084   -0.1500
      4 C4         -0.8273    3.3260   56.3019 C.3     1  ZINC000600609084    0.1300
      5 N5         -1.5897    4.5722   56.1935 N.am    1  ZINC000600609084   -1.1200
      6 S6         -1.5489    5.4484   54.7888 S.o2    1  ZINC000600609084    2.7000
      7 O7         -2.4929    6.4991   54.9437 O.2     1  ZINC000600609084   -0.9600
      8 O8         -0.1766    5.6734   54.4960 O.2     1  ZINC000600609084   -0.9500
      9 C9         -2.1670    4.4089   53.5075 C.ar    1  ZINC000600609084   -0.6700
     10 C10        -1.3368    4.0641   52.4430 C.ar    1  ZINC000600609084   -0.0400
     11 C11        -1.7830    3.2630   51.4370 C.ar    1  ZINC000600609084   -0.1200
     12 C12        -3.1000    2.7745   51.4695 C.ar    1  ZINC000600609084   -0.0100
     13 C13        -3.5963    1.9446   50.4496 C.ar    1  ZINC000600609084   -0.1200
     14 C14        -4.8773    1.4901   50.5149 C.ar    1  ZINC000600609084   -0.0900
     15 C15        -5.7079    1.8350   51.5798 C.ar    1  ZINC000600609084   -0.1200
     16 C16        -5.2619    2.6364   52.5853 C.ar    1  ZINC000600609084   -0.0900
     17 C17        -3.9446    3.1252   52.5526 C.ar    1  ZINC000600609084   -0.0800
     18 C18        -3.4468    3.9499   53.5753 C.ar    1  ZINC000600609084    0.0200
     19 N19        -0.0685    1.5585   59.1625 N.am    1  ZINC000600609084   -0.7200
     20 C20         0.5952    1.7121   60.4594 C.3     1  ZINC000600609084    0.1400
     21 H21         0.4770    2.7337   60.8204 H       1  ZINC000600609084    0.1000
     22 C22         0.0008    0.7218   61.4762 C.3     1  ZINC000600609084   -0.1300
     23 C23         1.1581   -0.1917   61.9300 C.3     1  ZINC000600609084   -0.1300
     24 C24         2.1786   -0.1179   60.7672 C.3     1  ZINC000600609084   -0.1200
     25 C25         2.0932    1.3670   60.3306 C.3     1  ZINC000600609084   -0.0700
     26 H26         2.6883    1.9945   60.9940 H       1  ZINC000600609084    0.0900
     27 C27         2.5534    1.5246   58.9042 C.ar    1  ZINC000600609084   -0.0600
     28 C28         3.1913    0.4785   58.2642 C.ar    1  ZINC000600609084   -0.1100
     29 C29         3.6135    0.6232   56.9559 C.ar    1  ZINC000600609084   -0.1200
     30 C30         3.3975    1.8138   56.2875 C.ar    1  ZINC000600609084   -0.1200
     31 C31         2.7589    2.8596   56.9274 C.ar    1  ZINC000600609084   -0.1200
     32 C32         2.3328    2.7135   58.2342 C.ar    1  ZINC000600609084   -0.1100
     33 H33        -1.4108    1.3724   56.9975 H       1  ZINC000600609084    0.1000
     34 H34        -2.5466    2.6747   57.4247 H       1  ZINC000600609084    0.1000
     35 H35         0.1906    3.5493   56.6215 H       1  ZINC000600609084    0.0900
     36 H36        -0.8028    2.8295   55.3318 H       1  ZINC000600609084    0.0800
     37 H37        -2.1184    4.8843   56.9446 H       1  ZINC000600609084    0.4200
     38 H38        -0.3241    4.4386   52.4153 H       1  ZINC000600609084    0.1400
     39 H39        -1.1283    3.0044   50.6179 H       1  ZINC000600609084    0.1400
     40 H40        -2.9644    1.6694   49.6181 H       1  ZINC000600609084    0.1300
     41 H41        -5.2563    0.8529   49.7296 H       1  ZINC000600609084    0.1300
     42 H42        -6.7207    1.4610   51.6072 H       1  ZINC000600609084    0.1300
     43 H43        -5.9170    2.8956   53.4039 H       1  ZINC000600609084    0.1300
     44 H44        -4.0774    4.2214   54.4090 H       1  ZINC000600609084    0.1500
     45 H45         0.0266    0.7320   58.6637 H       1  ZINC000600609084    0.4000
     46 H46        -0.4050    1.2628   62.3309 H       1  ZINC000600609084    0.0800
     47 H47        -0.7815    0.1270   61.0047 H       1  ZINC000600609084    0.0700
     48 H48         1.6021    0.1845   62.8517 H       1  ZINC000600609084    0.0700
     49 H49         0.8064   -1.2146   62.0646 H       1  ZINC000600609084    0.0700
     50 H50         3.1819   -0.3602   61.1177 H       1  ZINC000600609084    0.0700
     51 H51         1.8834   -0.7781   59.9517 H       1  ZINC000600609084    0.0700
     52 H52         3.3600   -0.4516   58.7863 H       1  ZINC000600609084    0.1200
     53 H53         4.1125   -0.1938   56.4561 H       1  ZINC000600609084    0.1200
     54 H54         3.7281    1.9271   55.2656 H       1  ZINC000600609084    0.1200
     55 H55         2.5906    3.7899   56.4053 H       1  ZINC000600609084    0.1200
     56 H56         1.8340    3.5306   58.7341 H       1  ZINC000600609084    0.1200
@<TRIPOS>BOND
     1     1     2    2
     2     2     3    1
     3     2    19   am
     4     3     4    1
     5     3    33    1
     6     3    34    1
     7     4     5    1
     8     4    35    1
     9     4    36    1
    10     5     6   am
    11     5    37    1
    12     6     7    2
    13     6     8    2
    14     6     9    1
    15     9    18   ar
    16     9    10   ar
    17    10    11   ar
    18    10    38    1
    19    11    12   ar
    20    11    39    1
    21    12    17   ar
    22    12    13   ar
    23    13    14   ar
    24    13    40    1
    25    14    15   ar
    26    14    41    1
    27    15    16   ar
    28    15    42    1
    29    16    17   ar
    30    16    43    1
    31    17    18   ar
    32    18    44    1
    33    19    20    1
    34    19    45    1
    35    20    21    1
    36    20    25    1
    37    20    22    1
    38    22    23    1
    39    22    46    1
    40    22    47    1
    41    23    24    1
    42    23    48    1
    43    23    49    1
    44    24    25    1
    45    24    50    1
    46    24    51    1
    47    25    26    1
    48    25    27    1
    49    27    32   ar
    50    27    28   ar
    51    28    29   ar
    52    28    52    1
    53    29    30   ar
    54    29    53    1
    55    30    31   ar
    56    30    54    1
    57    31    32   ar
    58    31    55    1
    59    32    56    1
@<TRIPOS>SUBSTRUCTURE
     1 ZINC000600609084        1 TEMP              0 ****  ****    0 ROOT


##########                                Name:    ZINC000011620562
##########                DOCK_Rotatable_Bonds:                   9
##########                         Heavy_Atoms:                  29
##########                    Molecular_Weight:             417.448
##########                DOCK_Rotatable_Bonds:                   9
##########                       Formal_Charge:           0.0299999
##########                     HBond_Acceptors:                  12
##########                        HBond_Donors:                   1
##########                         Heavy_Atoms:                  29
##########                          Grid_Score:          -33.032219
##########                     Grid_vdw_energy:          -31.420845
##########                      Grid_es_energy:           -1.611373
##########           Internal_energy_repulsive:           10.712330

@<TRIPOS>MOLECULE
ZINC000011620562
 48 50 1 0 0
SMALL
USER_CHARGES


@<TRIPOS>ATOM
      1 C1         -8.0531    0.6748   63.3855 C.3     1  ZINC000011620562    0.0400
      2 O2         -9.1758   -0.1884   63.0649 O.3     1  ZINC000011620562   -0.3500
      3 C3         -9.8653    0.0977   61.9492 C.2     1  ZINC000011620562    0.4600
      4 O4        -10.8350   -0.5594   61.6531 O.2     1  ZINC000011620562   -0.5000
      5 C5         -9.4300    1.2387   61.0662 C.3     1  ZINC000011620562    0.1300
      6 N6         -9.8840    0.9955   59.6948 N.am    1  ZINC000011620562   -0.7200
      7 C7         -9.1357    0.2475   58.8598 C.2     1  ZINC000011620562    0.5400
      8 O8         -8.0871   -0.2254   59.2443 O.2     1  ZINC000011620562   -0.5200
      9 C9         -9.6019   -0.0012   57.4485 C.3     1  ZINC000011620562   -0.1600
     10 S10        -8.5912    0.9660   56.3000 S.3     1  ZINC000011620562    0.1400
     11 C11        -9.3832    0.5602   54.7792 C.2     1  ZINC000011620562    0.2100
     12 N12       -10.4376   -0.2125   54.6282 N.2     1  ZINC000011620562   -0.3400
     13 N13       -10.7583   -0.2983   53.3877 N.2     1  ZINC000011620562   -0.0300
     14 N14        -9.9495    0.3990   52.6657 N.2     1  ZINC000011620562   -0.0800
     15 N15        -9.0248    0.9898   53.5446 N.pl3   1  ZINC000011620562   -0.2600
     16 C16        -7.9523    1.8397   53.2127 C.2     1  ZINC000011620562   -0.1300
     17 C17        -7.9013    3.1747   53.4224 C.2     1  ZINC000011620562    0.2500
     18 C18        -8.9853    4.0105   54.0525 C.3     1  ZINC000011620562   -0.1100
     19 N19        -6.6969    3.6373   52.9646 N.pl3   1  ZINC000011620562   -0.3700
     20 C20        -6.2408    5.0290   53.0036 C.3     1  ZINC000011620562    0.0900
     21 N21        -5.9754    2.5509   52.4530 N.am    1  ZINC000011620562   -0.3600
     22 C22        -4.6963    2.6029   51.8903 C.ar    1  ZINC000011620562    0.1400
     23 C23        -4.5078    2.2598   50.5576 C.ar    1  ZINC000011620562   -0.1300
     24 C24        -3.2434    2.3128   50.0047 C.ar    1  ZINC000011620562   -0.1000
     25 C25        -2.1656    2.7069   50.7763 C.ar    1  ZINC000011620562   -0.1100
     26 C26        -2.3498    3.0488   52.1036 C.ar    1  ZINC000011620562   -0.1000
     27 C27        -3.6125    3.0035   52.6610 C.ar    1  ZINC000011620562   -0.1000
     28 C28        -6.7322    1.4452   52.6050 C.2     1  ZINC000011620562    0.5500
     29 O29        -6.4270    0.3138   52.2738 O.2     1  ZINC000011620562   -0.5000
     30 H30        -8.4064    1.6980   63.5138 H       1  ZINC000011620562    0.0700
     31 H31        -7.5846    0.3337   64.3087 H       1  ZINC000011620562    0.1100
     32 H32        -7.3254    0.6407   62.5746 H       1  ZINC000011620562    0.0700
     33 H33        -9.8645    2.1685   61.4333 H       1  ZINC000011620562    0.1200
     34 H34        -8.3427    1.3151   61.0808 H       1  ZINC000011620562    0.1200
     35 H35       -10.7232    1.3726   59.3876 H       1  ZINC000011620562    0.4200
     36 H36        -9.5035   -1.0613   57.2148 H       1  ZINC000011620562    0.1400
     37 H37       -10.6461    0.2965   57.3530 H       1  ZINC000011620562    0.1400
     38 H38        -9.8283    3.3725   54.3177 H       1  ZINC000011620562    0.1000
     39 H39        -8.5975    4.4919   54.9503 H       1  ZINC000011620562    0.1000
     40 H40        -9.3143    4.7720   53.3453 H       1  ZINC000011620562    0.1000
     41 H41        -7.0261    5.6569   53.4245 H       1  ZINC000011620562    0.1100
     42 H42        -5.3468    5.1011   53.6230 H       1  ZINC000011620562    0.0900
     43 H43        -6.0103    5.3642   51.9924 H       1  ZINC000011620562    0.0900
     44 H44        -5.3491    1.9516   49.9545 H       1  ZINC000011620562    0.1300
     45 H45        -3.0961    2.0458   48.9686 H       1  ZINC000011620562    0.1300
     46 H46        -1.1779    2.7475   50.3414 H       1  ZINC000011620562    0.1300
     47 H47        -1.5059    3.3555   52.7036 H       1  ZINC000011620562    0.1400
     48 H48        -3.7557    3.2709   53.6975 H       1  ZINC000011620562    0.1400
@<TRIPOS>BOND
     1     1     2    1
     2     1    30    1
     3     1    31    1
     4     1    32    1
     5     2     3    1
     6     3     4    2
     7     3     5    1
     8     5     6    1
     9     5    33    1
    10     5    34    1
    11     6     7   am
    12     6    35    1
    13     7     8    2
    14     7     9    1
    15     9    10    1
    16     9    36    1
    17     9    37    1
    18    10    11    1
    19    11    15    1
    20    11    12    2
    21    12    13    1
    22    13    14    2
    23    14    15    1
    24    15    16    1
    25    16    28    1
    26    16    17    2
    27    17    18    1
    28    17    19    1
    29    18    38    1
    30    18    39    1
    31    18    40    1
    32    19    20    1
    33    19    21    1
    34    20    41    1
    35    20    42    1
    36    20    43    1
    37    21    22    1
    38    21    28   am
    39    22    27   ar
    40    22    23   ar
    41    23    24   ar
    42    23    44    1
    43    24    25   ar
    44    24    45    1
    45    25    26   ar
    46    25    46    1
    47    26    27   ar
    48    26    47    1
    49    27    48    1
    50    28    29    2
@<TRIPOS>SUBSTRUCTURE
     1 ZINC000011620562        1 TEMP              0 ****  ****    0 ROOT


##########                                Name:    ZINC000892249927
##########                DOCK_Rotatable_Bonds:                   8
##########                         Heavy_Atoms:                  27
##########                    Molecular_Weight:             364.487
##########                DOCK_Rotatable_Bonds:                   8
##########                       Formal_Charge:          -0.0300015
##########                     HBond_Acceptors:                   4
##########                        HBond_Donors:                   1
##########                         Heavy_Atoms:                  27
##########                          Grid_Score:          -32.992077
##########                     Grid_vdw_energy:          -32.387966
##########                      Grid_es_energy:           -0.604110
##########           Internal_energy_repulsive:           13.465420

@<TRIPOS>MOLECULE
ZINC000892249927
 55 58 1 0 0
SMALL
USER_CHARGES


@<TRIPOS>ATOM
      1 O1         -7.8002    4.5263   53.7102 O.2     1  ZINC000892249927   -0.5300
      2 C2         -6.8800    3.9239   54.2214 C.2     1  ZINC000892249927    0.5100
      3 C3         -6.8620    3.6990   55.7114 C.3     1  ZINC000892249927   -0.1400
      4 C4         -7.8896    2.6263   56.0778 C.3     1  ZINC000892249927   -0.1000
      5 C5         -7.8290    2.3547   57.5823 C.3     1  ZINC000892249927   -0.0800
      6 C6         -8.5918    1.0935   57.8961 C.ar    1  ZINC000892249927   -0.0900
      7 C7         -8.1116    0.2142   58.8485 C.ar    1  ZINC000892249927   -0.1100
      8 C8         -8.8114   -0.9428   59.1364 C.ar    1  ZINC000892249927   -0.1100
      9 C9         -9.9916   -1.2201   58.4723 C.ar    1  ZINC000892249927   -0.0500
     10 C10       -10.7541   -2.4816   58.7858 C.3     1  ZINC000892249927   -0.1200
     11 C11       -11.7117   -3.0122   57.7169 C.3     1  ZINC000892249927   -0.1800
     12 C12       -10.3943   -3.7398   57.9933 C.3     1  ZINC000892249927   -0.1700
     13 C13       -10.4725   -0.3400   57.5209 C.ar    1  ZINC000892249927   -0.1200
     14 C14        -9.7748    0.8187   57.2358 C.ar    1  ZINC000892249927   -0.1100
     15 N15        -5.8764    3.4507   53.4563 N.am    1  ZINC000892249927   -0.7300
     16 C16        -5.8940    3.6693   52.0078 C.3     1  ZINC000892249927    0.1400
     17 H17        -6.4288    4.5926   51.7848 H       1  ZINC000892249927    0.1000
     18 C18        -6.5939    2.4930   51.3205 C.3     1  ZINC000892249927   -0.1700
     19 C19        -5.7933    1.2132   51.5757 C.3     1  ZINC000892249927    0.0600
     20 O20        -4.4583    1.3843   51.0958 O.3     1  ZINC000892249927   -0.3700
     21 C21        -3.7389    2.4401   51.7361 C.3     1  ZINC000892249927    0.1400
     22 H22        -3.6899    2.2485   52.8080 H       1  ZINC000892249927    0.0700
     23 C23        -2.3425    2.5099   51.1737 C.ar    1  ZINC000892249927   -0.1400
     24 C24        -1.3119    3.0599   51.9200 C.ar    1  ZINC000892249927   -0.0700
     25 C25        -0.0430    3.1028   51.3622 C.ar    1  ZINC000892249927   -0.1700
     26 C26         0.1506    2.5994   50.0900 C.ar    1  ZINC000892249927    0.1000
     27 N27        -0.8538    2.0831   49.4087 N.ar    1  ZINC000892249927   -0.4900
     28 C28        -2.0719    2.0211   49.9093 C.ar    1  ZINC000892249927    0.1300
     29 C29        -4.4569    3.7713   51.4876 C.3     1  ZINC000892249927   -0.1500
     30 H30        -5.8687    3.3701   56.0173 H       1  ZINC000892249927    0.0900
     31 H31        -7.1100    4.6293   56.2224 H       1  ZINC000892249927    0.0900
     32 H32        -8.8879    2.9733   55.8110 H       1  ZINC000892249927    0.0700
     33 H33        -7.6666    1.7086   55.5336 H       1  ZINC000892249927    0.0700
     34 H34        -6.7897    2.2365   57.8886 H       1  ZINC000892249927    0.0700
     35 H35        -8.2737    3.1917   58.1207 H       1  ZINC000892249927    0.0700
     36 H36        -7.1896    0.4308   59.3674 H       1  ZINC000892249927    0.1200
     37 H37        -8.4358   -1.6301   59.8800 H       1  ZINC000892249927    0.1200
     38 H38       -11.0432   -2.6091   59.8290 H       1  ZINC000892249927    0.1100
     39 H39       -12.6310   -3.4891   58.0569 H       1  ZINC000892249927    0.1000
     40 H40       -11.7900   -2.4490   56.7870 H       1  ZINC000892249927    0.1000
     41 H41        -9.6062   -3.6553   57.2452 H       1  ZINC000892249927    0.1000
     42 H42       -10.4472   -4.6954   58.5150 H       1  ZINC000892249927    0.1000
     43 H43       -11.3948   -0.5565   57.0023 H       1  ZINC000892249927    0.1200
     44 H44       -10.1505    1.5063   56.4924 H       1  ZINC000892249927    0.1200
     45 H45        -5.1425    2.9655   53.8648 H       1  ZINC000892249927    0.4000
     46 H46        -7.5996    2.3803   51.7255 H       1  ZINC000892249927    0.0800
     47 H47        -6.6508    2.6791   50.2480 H       1  ZINC000892249927    0.0800
     48 H48        -5.7712    1.0056   52.6455 H       1  ZINC000892249927    0.0500
     49 H49        -6.2635    0.3801   51.0533 H       1  ZINC000892249927    0.1000
     50 H50        -1.4930    3.4463   52.9122 H       1  ZINC000892249927    0.1300
     51 H51         0.7833    3.5247   51.9150 H       1  ZINC000892249927    0.1400
     52 H52         1.1357    2.6294   49.6483 H       1  ZINC000892249927    0.1600
     53 H53        -2.8694    1.5911   49.3213 H       1  ZINC000892249927    0.1600
     54 H54        -4.4706    3.9838   50.4185 H       1  ZINC000892249927    0.0900
     55 H55        -3.9336    4.5708   52.0121 H       1  ZINC000892249927    0.0800
@<TRIPOS>BOND
     1     1     2    2
     2     2     3    1
     3     2    15   am
     4     3     4    1
     5     3    30    1
     6     3    31    1
     7     4     5    1
     8     4    32    1
     9     4    33    1
    10     5     6    1
    11     5    34    1
    12     5    35    1
    13     6    14   ar
    14     6     7   ar
    15     7     8   ar
    16     7    36    1
    17     8     9   ar
    18     8    37    1
    19     9    10    1
    20     9    13   ar
    21    10    12    1
    22    10    11    1
    23    10    38    1
    24    11    12    1
    25    11    39    1
    26    11    40    1
    27    12    41    1
    28    12    42    1
    29    13    14   ar
    30    13    43    1
    31    14    44    1
    32    15    16    1
    33    15    45    1
    34    16    17    1
    35    16    29    1
    36    16    18    1
    37    18    19    1
    38    18    46    1
    39    18    47    1
    40    19    20    1
    41    19    48    1
    42    19    49    1
    43    20    21    1
    44    21    22    1
    45    21    23    1
    46    21    29    1
    47    23    28   ar
    48    23    24   ar
    49    24    25   ar
    50    24    50    1
    51    25    26   ar
    52    25    51    1
    53    26    27   ar
    54    26    52    1
    55    27    28   ar
    56    28    53    1
    57    29    54    1
    58    29    55    1
@<TRIPOS>SUBSTRUCTURE
     1 ZINC000892249927        1 TEMP              0 ****  ****    0 ROOT


##########                                Name:    ZINC000114394234
##########                DOCK_Rotatable_Bonds:                   9
##########                         Heavy_Atoms:                  27
##########                    Molecular_Weight:             365.392
##########                DOCK_Rotatable_Bonds:                   9
##########                       Formal_Charge:           0.0300002
##########                     HBond_Acceptors:                   8
##########                        HBond_Donors:                   3
##########                         Heavy_Atoms:                  27
##########                          Grid_Score:          -32.988758
##########                     Grid_vdw_energy:          -30.200573
##########                      Grid_es_energy:           -2.788186
##########           Internal_energy_repulsive:            9.247482

@<TRIPOS>MOLECULE
ZINC000114394234
 46 48 1 0 0
SMALL
USER_CHARGES


@<TRIPOS>ATOM
      1 C1         -7.0411    2.5531   51.6843 C.3     1  ZINC000114394234   -0.1600
      2 C2         -6.2931    3.3788   52.7328 C.3     1  ZINC000114394234    0.1300
      3 H3         -6.8017    4.3324   52.8749 H       1  ZINC000114394234    0.1200
      4 N4         -6.2646    2.6467   54.0015 N.am    1  ZINC000114394234   -0.7100
      5 C5         -7.2877    2.7648   54.8708 C.2     1  ZINC000114394234    0.5200
      6 O6         -8.2313    3.4784   54.6035 O.2     1  ZINC000114394234   -0.5100
      7 C7         -7.2592    2.0104   56.1750 C.3     1  ZINC000114394234    0.0400
      8 O8         -8.5942    1.6817   56.5645 O.3     1  ZINC000114394234   -0.2900
      9 C9         -8.7418    0.9235   57.6827 C.ar    1  ZINC000114394234    0.1300
     10 C10       -10.0067    0.5252   58.0902 C.ar    1  ZINC000114394234   -0.2100
     11 C11       -10.1540   -0.2459   59.2270 C.ar    1  ZINC000114394234   -0.0800
     12 C12        -9.0422   -0.6203   59.9586 C.ar    1  ZINC000114394234   -0.1600
     13 C13        -7.7805   -0.2242   59.5549 C.ar    1  ZINC000114394234   -0.0800
     14 C14        -7.6273    0.5418   58.4154 C.ar    1  ZINC000114394234   -0.1500
     15 C15        -4.8825    3.6269   52.2641 C.2     1  ZINC000114394234    0.5100
     16 O16        -4.6460    4.5516   51.5157 O.2     1  ZINC000114394234   -0.5100
     17 N17        -3.8839    2.8212   52.6763 N.am    1  ZINC000114394234   -0.6700
     18 C18        -2.5740    3.0517   52.2410 C.ar    1  ZINC000114394234    0.1300
     19 C19        -1.7562    3.9341   52.9356 C.ar    1  ZINC000114394234   -0.1200
     20 C20        -0.4618    4.1642   52.5086 C.ar    1  ZINC000114394234   -0.1000
     21 C21         0.0252    3.5191   51.3897 C.ar    1  ZINC000114394234   -0.0900
     22 C22        -0.7886    2.6325   50.6864 C.ar    1  ZINC000114394234    0.0000
     23 C23        -0.2667    1.9384   49.4829 C.2     1  ZINC000114394234    0.2700
     24 N24        -0.9657    1.6291   48.4129 N.2     1  ZINC000114394234   -0.3000
     25 N25        -0.0854    0.9869   47.5271 N.pl3   1  ZINC000114394234   -0.4800
     26 C26         1.1130    0.9517   48.1372 C.2     1  ZINC000114394234    0.2700
     27 N27         0.9962    1.5283   49.3041 N.2     1  ZINC000114394234   -0.5300
     28 C28        -2.0900    2.3949   51.1194 C.ar    1  ZINC000114394234   -0.0800
     29 H29        -6.5326    1.5996   51.5421 H       1  ZINC000114394234    0.0700
     30 H30        -8.0615    2.3737   52.0232 H       1  ZINC000114394234    0.0800
     31 H31        -7.0624    3.0978   50.7403 H       1  ZINC000114394234    0.0800
     32 H32        -5.5093    2.0770   54.2158 H       1  ZINC000114394234    0.4100
     33 H33        -6.6805    1.0948   56.0527 H       1  ZINC000114394234    0.1000
     34 H34        -6.7988    2.6310   56.9438 H       1  ZINC000114394234    0.1000
     35 H35       -10.8756    0.8181   57.5194 H       1  ZINC000114394234    0.1300
     36 H36       -11.1385   -0.5561   59.5445 H       1  ZINC000114394234    0.1300
     37 H37        -9.1594   -1.2229   60.8472 H       1  ZINC000114394234    0.1300
     38 H38        -6.9136   -0.5177   60.1282 H       1  ZINC000114394234    0.1300
     39 H39        -6.6415    0.8508   58.1004 H       1  ZINC000114394234    0.1300
     40 H40        -4.0730    2.0817   53.2748 H       1  ZINC000114394234    0.4200
     41 H41        -2.1327    4.4418   53.8113 H       1  ZINC000114394234    0.1300
     42 H42         0.1702    4.8511   53.0519 H       1  ZINC000114394234    0.1400
     43 H43         1.0369    3.7016   51.0587 H       1  ZINC000114394234    0.1400
     44 H44        -0.2996    0.6372   46.6480 H       1  ZINC000114394234    0.4400
     45 H45         2.0176    0.5245   47.7304 H       1  ZINC000114394234    0.2300
     46 H46        -2.7242    1.7088   50.5779 H       1  ZINC000114394234    0.1500
@<TRIPOS>BOND
     1     1     2    1
     2     1    29    1
     3     1    30    1
     4     1    31    1
     5     2     3    1
     6     2     4    1
     7     2    15    1
     8     4     5   am
     9     4    32    1
    10     5     6    2
    11     5     7    1
    12     7     8    1
    13     7    33    1
    14     7    34    1
    15     8     9    1
    16     9    14   ar
    17     9    10   ar
    18    10    11   ar
    19    10    35    1
    20    11    12   ar
    21    11    36    1
    22    12    13   ar
    23    12    37    1
    24    13    14   ar
    25    13    38    1
    26    14    39    1
    27    15    16    2
    28    15    17   am
    29    17    18    1
    30    17    40    1
    31    18    28   ar
    32    18    19   ar
    33    19    20   ar
    34    19    41    1
    35    20    21   ar
    36    20    42    1
    37    21    22   ar
    38    21    43    1
    39    22    23    1
    40    22    28   ar
    41    23    27    1
    42    23    24    2
    43    24    25    1
    44    25    26    1
    45    25    44    1
    46    26    27    2
    47    26    45    1
    48    28    46    1
@<TRIPOS>SUBSTRUCTURE
     1 ZINC000114394234        1 TEMP              0 ****  ****    0 ROOT


##########                                Name:    ZINC000980108339
##########                DOCK_Rotatable_Bonds:                   9
##########                         Heavy_Atoms:                  25
##########                    Molecular_Weight:             348.445
##########                DOCK_Rotatable_Bonds:                   9
##########                       Formal_Charge:          -0.0100001
##########                     HBond_Acceptors:                   7
##########                        HBond_Donors:                   3
##########                         Heavy_Atoms:                  25
##########                          Grid_Score:          -32.927097
##########                     Grid_vdw_energy:          -31.016756
##########                      Grid_es_energy:           -1.910343
##########           Internal_energy_repulsive:            7.024927

@<TRIPOS>MOLECULE
ZINC000980108339
 53 56 1 0 0
SMALL
USER_CHARGES


@<TRIPOS>ATOM
      1 C1         -1.8647    3.2474   51.8085 C.3     1  ZINC000980108339    0.1200
      2 N2         -3.2228    2.9933   51.3215 N.am    1  ZINC000980108339   -0.6400
      3 C3         -3.6971    1.7280   50.7413 C.3     1  ZINC000980108339    0.1100
      4 C4         -5.1748    2.0072   50.4049 C.3     1  ZINC000980108339    0.1000
      5 H5         -5.3492    1.9059   49.3337 H       1  ZINC000980108339    0.1200
      6 C6         -6.0774    1.0790   51.1762 C.2     1  ZINC000980108339    0.5000
      7 O7         -6.1251   -0.0982   50.8885 O.2     1  ZINC000980108339   -0.5200
      8 N8         -6.8313    1.5570   52.1859 N.am    1  ZINC000980108339   -0.7200
      9 C9         -7.7099    0.6550   52.9346 C.3     1  ZINC000980108339    0.1300
     10 C10        -7.9613    1.2298   54.3302 C.3     1  ZINC000980108339   -0.1200
     11 H11        -7.0680    1.2302   54.9549 H       1  ZINC000980108339    0.1000
     12 C12        -8.7045    2.5759   54.3172 C.3     1  ZINC000980108339   -0.1400
     13 C13        -9.4929    2.0627   55.5338 C.3     1  ZINC000980108339    0.1200
     14 H14       -10.5505    2.3257   55.5114 H       1  ZINC000980108339    0.1100
     15 N15        -8.8573    2.3706   56.8174 N.am    1  ZINC000980108339   -0.7200
     16 C16        -9.2982    1.7811   57.9463 C.2     1  ZINC000980108339    0.5200
     17 O17       -10.2204    0.9947   57.8994 O.2     1  ZINC000980108339   -0.5300
     18 C18        -8.6455    2.0991   59.2669 C.3     1  ZINC000980108339   -0.1100
     19 C19        -8.8734    0.9410   60.2404 C.3     1  ZINC000980108339   -0.1300
     20 H20        -8.3684    0.0085   59.9882 H       1  ZINC000980108339    0.1200
     21 C21       -10.2443    0.8425   60.9126 C.3     1  ZINC000980108339   -0.1700
     22 C22        -9.0236    1.2842   61.7238 C.3     1  ZINC000980108339   -0.1200
     23 H23        -8.9605    2.3351   62.0063 H       1  ZINC000980108339    0.1000
     24 C24        -8.4544    0.2923   62.7401 C.3     1  ZINC000980108339   -0.1300
     25 C25        -8.2142    0.7992   64.1637 C.3     1  ZINC000980108339   -0.1800
     26 C26        -9.3726   -0.1587   63.8779 C.3     1  ZINC000980108339   -0.1800
     27 C27        -9.1992    0.6395   55.0258 C.3     1  ZINC000980108339   -0.1400
     28 N28        -5.3762    3.4001   50.8312 N.am    1  ZINC000980108339   -0.7200
     29 C29        -4.2312    3.8748   51.3391 C.2     1  ZINC000980108339    0.7000
     30 O30        -4.1154    5.0062   51.7688 O.2     1  ZINC000980108339   -0.5800
     31 H31        -1.7997    4.2670   52.1885 H       1  ZINC000980108339    0.0900
     32 H32        -1.6284    2.5458   52.6086 H       1  ZINC000980108339    0.0600
     33 H33        -1.1554    3.1184   50.9910 H       1  ZINC000980108339    0.0600
     34 H34        -3.1376    1.4882   49.8371 H       1  ZINC000980108339    0.1000
     35 H35        -3.6163    0.9198   51.4681 H       1  ZINC000980108339    0.0900
     36 H36        -6.7922    2.4983   52.4170 H       1  ZINC000980108339    0.4000
     37 H37        -8.6586    0.5518   52.4080 H       1  ZINC000980108339    0.0700
     38 H38        -7.2359   -0.3224   53.0243 H       1  ZINC000980108339    0.0700
     39 H39        -8.0650    3.4300   54.5401 H       1  ZINC000980108339    0.0800
     40 H40        -9.3198    2.7265   53.4302 H       1  ZINC000980108339    0.1000
     41 H41        -8.1190    2.9986   56.8547 H       1  ZINC000980108339    0.4000
     42 H42        -7.5754    2.2433   59.1179 H       1  ZINC000980108339    0.1000
     43 H43        -9.0812    3.0100   59.6775 H       1  ZINC000980108339    0.1000
     44 H44       -10.9838    1.6028   60.6613 H       1  ZINC000980108339    0.0900
     45 H45       -10.6410   -0.1548   61.1029 H       1  ZINC000980108339    0.1000
     46 H46        -7.7516   -0.4389   62.3407 H       1  ZINC000980108339    0.1000
     47 H47        -7.3532    0.4015   64.7010 H       1  ZINC000980108339    0.0900
     48 H48        -8.4619    1.8391   64.3761 H       1  ZINC000980108339    0.0900
     49 H49       -10.3823    0.2512   63.9022 H       1  ZINC000980108339    0.0900
     50 H50        -9.2737   -1.1864   64.2271 H       1  ZINC000980108339    0.0900
     51 H51        -9.9494    0.2599   54.3322 H       1  ZINC000980108339    0.1000
     52 H52        -8.9599   -0.0671   55.8205 H       1  ZINC000980108339    0.0800
     53 H53        -6.2073    3.8951   50.7598 H       1  ZINC000980108339    0.4400
@<TRIPOS>BOND
     1     1     2    1
     2     1    31    1
     3     1    32    1
     4     1    33    1
     5     2    29   am
     6     2     3    1
     7     3     4    1
     8     3    34    1
     9     3    35    1
    10     4     5    1
    11     4     6    1
    12     4    28    1
    13     6     7    2
    14     6     8   am
    15     8     9    1
    16     8    36    1
    17     9    10    1
    18     9    37    1
    19     9    38    1
    20    10    11    1
    21    10    27    1
    22    10    12    1
    23    12    13    1
    24    12    39    1
    25    12    40    1
    26    13    14    1
    27    13    15    1
    28    13    27    1
    29    15    16   am
    30    15    41    1
    31    16    17    2
    32    16    18    1
    33    18    19    1
    34    18    42    1
    35    18    43    1
    36    19    20    1
    37    19    22    1
    38    19    21    1
    39    21    22    1
    40    21    44    1
    41    21    45    1
    42    22    23    1
    43    22    24    1
    44    24    26    1
    45    24    25    1
    46    24    46    1
    47    25    26    1
    48    25    47    1
    49    25    48    1
    50    26    49    1
    51    26    50    1
    52    27    51    1
    53    27    52    1
    54    28    29   am
    55    28    53    1
    56    29    30    2
@<TRIPOS>SUBSTRUCTURE
     1 ZINC000980108339        1 TEMP              0 ****  ****    0 ROOT


##########                                Name:    ZINC000492313853
##########                DOCK_Rotatable_Bonds:                   8
##########                         Heavy_Atoms:                  30
##########                    Molecular_Weight:             418.422
##########                DOCK_Rotatable_Bonds:                   8
##########                       Formal_Charge:          -0.0100008
##########                     HBond_Acceptors:                  10
##########                        HBond_Donors:                   2
##########                         Heavy_Atoms:                  30
##########                          Grid_Score:          -32.921253
##########                     Grid_vdw_energy:          -31.082624
##########                      Grid_es_energy:           -1.838629
##########           Internal_energy_repulsive:           11.440207

@<TRIPOS>MOLECULE
ZINC000492313853
 51 53 1 0 0
SMALL
USER_CHARGES


@<TRIPOS>ATOM
      1 C1        -14.4143    2.5457   49.7812 C.3     1  ZINC000492313853    0.0900
      2 N2        -13.6184    3.3454   48.8467 N.pl3   1  ZINC000492313853   -0.6200
      3 C3        -14.1805    3.7317   47.5502 C.3     1  ZINC000492313853    0.1000
      4 C4        -12.3298    3.7378   49.1903 C.ar    1  ZINC000492313853    0.4100
      5 C5        -11.6754    4.6987   48.4268 C.ar    1  ZINC000492313853   -0.2400
      6 C6        -10.3934    5.0802   48.7804 C.ar    1  ZINC000492313853   -0.0100
      7 C7         -9.8073    4.4856   49.8896 C.ar    1  ZINC000492313853   -0.2300
      8 C8         -8.4129    4.8707   50.3120 C.3     1  ZINC000492313853    0.2000
      9 N9         -7.6515    3.6633   50.6419 N.am    1  ZINC000492313853   -0.7300
     10 C10        -6.3119    3.7270   50.7755 C.2     1  ZINC000492313853    0.7100
     11 O11        -5.7353    4.7867   50.6237 O.2     1  ZINC000492313853   -0.5600
     12 N12        -5.6113    2.6159   51.0775 N.am    1  ZINC000492313853   -0.6600
     13 C13        -4.2244    2.6813   51.2142 C.2     1  ZINC000492313853    0.3300
     14 C14        -3.3085    2.2696   50.2987 C.2     1  ZINC000492313853   -0.2600
     15 C15        -2.0287    2.5137   50.8310 C.2     1  ZINC000492313853    0.1200
     16 C16        -0.7369    2.2153   50.1641 C.ar    1  ZINC000492313853   -0.0100
     17 C17        -0.7182    1.7640   48.8463 C.ar    1  ZINC000492313853   -0.0600
     18 C18         0.4862    1.4884   48.2307 C.ar    1  ZINC000492313853   -0.1200
     19 C19         1.6730    1.6598   48.9197 C.ar    1  ZINC000492313853   -0.0700
     20 C20         1.6603    2.1078   50.2286 C.ar    1  ZINC000492313853   -0.1900
     21 C21         2.9575    2.2925   50.9730 C.3     1  ZINC000492313853    0.5100
     22 F22         2.7026    2.3483   52.3475 F       1  ZINC000492313853   -0.1800
     23 F23         3.8091    1.2167   50.7000 F       1  ZINC000492313853   -0.1800
     24 F24         3.5651    3.4840   50.5627 F       1  ZINC000492313853   -0.1800
     25 C25         0.4622    2.3912   50.8520 C.ar    1  ZINC000492313853   -0.0400
     26 N26        -2.1763    3.0523   52.0227 N.2     1  ZINC000492313853   -0.2700
     27 N27        -3.5469    3.1735   52.2841 N.pl3   1  ZINC000492313853   -0.3900
     28 C28        -4.1453    3.7256   53.5021 C.3     1  ZINC000492313853    0.1000
     29 C29       -10.5151    3.5382   50.6022 C.ar    1  ZINC000492313853    0.1700
     30 N30       -11.7386    3.1973   50.2449 N.ar    1  ZINC000492313853   -0.5400
     31 H31       -14.2379    1.4864   49.5945 H       1  ZINC000492313853    0.0600
     32 H32       -14.1251    2.7874   50.8040 H       1  ZINC000492313853    0.0700
     33 H33       -15.4720    2.7683   49.6405 H       1  ZINC000492313853    0.0700
     34 H34       -15.1922    3.3361   47.4604 H       1  ZINC000492313853    0.0700
     35 H35       -14.2074    4.8187   47.4751 H       1  ZINC000492313853    0.0600
     36 H36       -13.5601    3.3275   46.7503 H       1  ZINC000492313853    0.0600
     37 H37       -12.1611    5.1407   47.5695 H       1  ZINC000492313853    0.1300
     38 H38        -9.8604    5.8236   48.2062 H       1  ZINC000492313853    0.1400
     39 H39        -7.9194    5.3999   49.4967 H       1  ZINC000492313853    0.0800
     40 H40        -8.4642    5.5184   51.1871 H       1  ZINC000492313853    0.0800
     41 H41        -8.1115    2.8182   50.7642 H       1  ZINC000492313853    0.4000
     42 H42        -6.0714    1.7707   51.1999 H       1  ZINC000492313853    0.4100
     43 H43        -3.5242    1.8325   49.3350 H       1  ZINC000492313853    0.1800
     44 H44        -1.6445    1.6295   48.3074 H       1  ZINC000492313853    0.1400
     45 H45         0.5018    1.1382   47.2092 H       1  ZINC000492313853    0.1400
     46 H46         2.6131    1.4428   48.4345 H       1  ZINC000492313853    0.1400
     47 H47         0.4534    2.7409   51.8737 H       1  ZINC000492313853    0.1400
     48 H48        -4.2912    4.7989   53.3809 H       1  ZINC000492313853    0.0800
     49 H49        -5.1073    3.2463   53.6837 H       1  ZINC000492313853    0.0800
     50 H50        -3.4826    3.5422   54.3478 H       1  ZINC000492313853    0.1000
     51 H51       -10.0629    3.0731   51.4658 H       1  ZINC000492313853    0.1600
@<TRIPOS>BOND
     1     1     2    1
     2     1    31    1
     3     1    32    1
     4     1    33    1
     5     2     3    1
     6     2     4    1
     7     3    34    1
     8     3    35    1
     9     3    36    1
    10     4    30   ar
    11     4     5   ar
    12     5     6   ar
    13     5    37    1
    14     6     7   ar
    15     6    38    1
    16     7     8    1
    17     7    29   ar
    18     8     9    1
    19     8    39    1
    20     8    40    1
    21     9    10   am
    22     9    41    1
    23    10    11    2
    24    10    12   am
    25    12    13    1
    26    12    42    1
    27    13    27    1
    28    13    14    2
    29    14    15    1
    30    14    43    1
    31    15    16    1
    32    15    26    2
    33    16    25   ar
    34    16    17   ar
    35    17    18   ar
    36    17    44    1
    37    18    19   ar
    38    18    45    1
    39    19    20   ar
    40    19    46    1
    41    20    21    1
    42    20    25   ar
    43    21    22    1
    44    21    23    1
    45    21    24    1
    46    25    47    1
    47    26    27    1
    48    27    28    1
    49    28    48    1
    50    28    49    1
    51    28    50    1
    52    29    30   ar
    53    29    51    1
@<TRIPOS>SUBSTRUCTURE
     1 ZINC000492313853        1 TEMP              0 ****  ****    0 ROOT


##########                                Name:    ZINC000434204837
##########                DOCK_Rotatable_Bonds:                   7
##########                         Heavy_Atoms:                  29
##########                    Molecular_Weight:             406.511
##########                DOCK_Rotatable_Bonds:                   7
##########                       Formal_Charge:          -0.0200002
##########                     HBond_Acceptors:                   8
##########                        HBond_Donors:                   0
##########                         Heavy_Atoms:                  29
##########                          Grid_Score:          -32.916420
##########                     Grid_vdw_energy:          -32.993816
##########                      Grid_es_energy:            0.077395
##########           Internal_energy_repulsive:           21.057055

@<TRIPOS>MOLECULE
ZINC000434204837
 51 54 1 0 0
SMALL
USER_CHARGES


@<TRIPOS>ATOM
      1 C1        -10.9691   -1.3404   55.2432 C.3     1  ZINC000434204837   -0.1300
      2 C2        -11.1251   -0.0402   54.4973 C.ar    1  ZINC000434204837   -0.0700
      3 C3        -12.0642    0.8855   54.9112 C.ar    1  ZINC000434204837   -0.1200
      4 C4        -12.2073    2.0783   54.2269 C.ar    1  ZINC000434204837   -0.1100
      5 C5        -11.4112    2.3451   53.1290 C.ar    1  ZINC000434204837   -0.1300
      6 C6        -10.4712    1.4194   52.7155 C.ar    1  ZINC000434204837   -0.0900
      7 C7        -10.3251    0.2288   53.4022 C.ar    1  ZINC000434204837   -0.1000
      8 C8         -9.3005   -0.7802   52.9514 C.3     1  ZINC000434204837    0.0100
      9 C9         -8.0553   -0.0632   52.4973 C.2     1  ZINC000434204837    0.2000
     10 N10        -7.6020    1.0797   52.9533 N.2     1  ZINC000434204837   -0.4600
     11 C11        -6.4764    1.3255   52.2594 C.2     1  ZINC000434204837    0.1700
     12 C12        -5.5779    2.5255   52.4132 C.3     1  ZINC000434204837   -0.0300
     13 S13        -3.9668    2.1724   51.6676 S.3     1  ZINC000434204837    0.0900
     14 C14        -3.0992    3.6429   52.1030 C.2     1  ZINC000434204837    0.2100
     15 N15        -3.5765    4.6583   52.7900 N.2     1  ZINC000434204837   -0.3300
     16 N16        -2.6805    5.5674   52.9307 N.2     1  ZINC000434204837   -0.0200
     17 N17        -1.5836    5.2100   52.3557 N.2     1  ZINC000434204837   -0.0700
     18 N18        -1.8107    3.9396   51.7982 N.pl3   1  ZINC000434204837   -0.3100
     19 C19        -0.9034    3.1520   51.0755 C.ar    1  ZINC000434204837    0.1100
     20 C20        -1.3289    2.4521   49.9545 C.ar    1  ZINC000434204837   -0.1100
     21 C21        -0.4327    1.6773   49.2443 C.ar    1  ZINC000434204837   -0.0900
     22 C22         0.8871    1.5980   49.6491 C.ar    1  ZINC000434204837   -0.0600
     23 C23         1.8624    0.7518   48.8720 C.3     1  ZINC000434204837   -0.0600
     24 C24         2.9077    1.6538   48.2127 C.3     1  ZINC000434204837   -0.1500
     25 C25         2.5583   -0.2259   49.8211 C.3     1  ZINC000434204837   -0.1500
     26 C26         1.3139    2.2940   50.7652 C.ar    1  ZINC000434204837   -0.1000
     27 C27         0.4236    3.0748   51.4761 C.ar    1  ZINC000434204837   -0.0900
     28 N28        -6.3058    0.3380   51.4322 N.2     1  ZINC000434204837   -0.3600
     29 O29        -7.1989   -0.4733   51.5569 O.3     1  ZINC000434204837    0.0900
     30 H30       -10.2349   -1.2167   56.0393 H       1  ZINC000434204837    0.0800
     31 H31       -11.9275   -1.6292   55.6745 H       1  ZINC000434204837    0.0700
     32 H32       -10.6318   -2.1157   54.5552 H       1  ZINC000434204837    0.0700
     33 H33       -12.6863    0.6771   55.7690 H       1  ZINC000434204837    0.1300
     34 H34       -12.9416    2.8014   54.5499 H       1  ZINC000434204837    0.1200
     35 H35       -11.5234    3.2765   52.5940 H       1  ZINC000434204837    0.1300
     36 H36        -9.8493    1.6277   51.8575 H       1  ZINC000434204837    0.1300
     37 H37        -9.0556   -1.4444   53.7803 H       1  ZINC000434204837    0.1200
     38 H38        -9.7051   -1.3644   52.1250 H       1  ZINC000434204837    0.1200
     39 H39        -6.0288    3.3835   51.9145 H       1  ZINC000434204837    0.1300
     40 H40        -5.4472    2.7481   53.4722 H       1  ZINC000434204837    0.1400
     41 H41        -2.3598    2.5131   49.6383 H       1  ZINC000434204837    0.1400
     42 H42        -0.7631    1.1327   48.3723 H       1  ZINC000434204837    0.1400
     43 H43         1.3275    0.1938   48.1037 H       1  ZINC000434204837    0.0800
     44 H44         3.4427    2.2119   48.9812 H       1  ZINC000434204837    0.0600
     45 H45         3.6131    1.0418   47.6507 H       1  ZINC000434204837    0.0600
     46 H46         2.4119    2.3504   47.5365 H       1  ZINC000434204837    0.0600
     47 H47         1.8137   -0.8685   50.2909 H       1  ZINC000434204837    0.0600
     48 H48         3.2637   -0.8379   49.2591 H       1  ZINC000434204837    0.0600
     49 H49         3.0933    0.3322   50.5895 H       1  ZINC000434204837    0.0600
     50 H50         2.3453    2.2297   51.0792 H       1  ZINC000434204837    0.1400
     51 H51         0.7576    3.6181   52.3477 H       1  ZINC000434204837    0.1400
@<TRIPOS>BOND
     1     1     2    1
     2     1    30    1
     3     1    31    1
     4     1    32    1
     5     2     7   ar
     6     2     3   ar
     7     3     4   ar
     8     3    33    1
     9     4     5   ar
    10     4    34    1
    11     5     6   ar
    12     5    35    1
    13     6     7   ar
    14     6    36    1
    15     7     8    1
    16     8     9    1
    17     8    37    1
    18     8    38    1
    19     9    29    1
    20     9    10    2
    21    10    11    1
    22    11    12    1
    23    11    28    2
    24    12    13    1
    25    12    39    1
    26    12    40    1
    27    13    14    1
    28    14    18    1
    29    14    15    2
    30    15    16    1
    31    16    17    2
    32    17    18    1
    33    18    19    1
    34    19    27   ar
    35    19    20   ar
    36    20    21   ar
    37    20    41    1
    38    21    22   ar
    39    21    42    1
    40    22    23    1
    41    22    26   ar
    42    23    24    1
    43    23    25    1
    44    23    43    1
    45    24    44    1
    46    24    45    1
    47    24    46    1
    48    25    47    1
    49    25    48    1
    50    25    49    1
    51    26    27   ar
    52    26    50    1
    53    27    51    1
    54    28    29    1
@<TRIPOS>SUBSTRUCTURE
     1 ZINC000434204837        1 TEMP              0 ****  ****    0 ROOT


##########                                Name:    ZINC000000992968
##########                DOCK_Rotatable_Bonds:                   8
##########                         Heavy_Atoms:                  27
##########                    Molecular_Weight:             384.772
##########                DOCK_Rotatable_Bonds:                   8
##########                       Formal_Charge:           0.0199999
##########                     HBond_Acceptors:                   7
##########                        HBond_Donors:                   0
##########                         Heavy_Atoms:                  27
##########                          Grid_Score:          -32.915497
##########                     Grid_vdw_energy:          -31.879433
##########                      Grid_es_energy:           -1.036066
##########           Internal_energy_repulsive:            6.019443

@<TRIPOS>MOLECULE
ZINC000000992968
 40 42 1 0 0
SMALL
USER_CHARGES


@<TRIPOS>ATOM
      1 O1        -10.5931    0.8653   55.6211 O.2     1  ZINC000000992968   -0.4600
      2 C2         -9.6078    1.5710   55.5187 C.2     1  ZINC000000992968    0.5600
      3 O3         -9.4544    2.3629   54.4368 O.3     1  ZINC000000992968   -0.2900
      4 C4         -8.3862    2.1396   53.6303 C.ar    1  ZINC000000992968    0.1200
      5 C5         -7.9875    0.8365   53.3533 C.ar    1  ZINC000000992968   -0.1300
      6 C6         -6.9046    0.6047   52.5364 C.ar    1  ZINC000000992968   -0.0400
      7 C7         -6.2042    1.6836   51.9834 C.ar    1  ZINC000000992968   -0.1600
      8 C8         -5.0479    1.4419   51.1102 C.2     1  ZINC000000992968    0.4000
      9 O9         -4.9880    0.4259   50.4505 O.2     1  ZINC000000992968   -0.4200
     10 C10        -3.9360    2.4564   51.0341 C.3     1  ZINC000000992968    0.0200
     11 O11        -2.7606    1.8427   50.4425 O.3     1  ZINC000000992968   -0.3300
     12 C12        -1.5925    2.4995   50.5810 C.2     1  ZINC000000992968    0.5100
     13 O13        -1.5500    3.5369   51.2117 O.2     1  ZINC000000992968   -0.5000
     14 C14        -0.3639    1.9584   49.9662 C.ar    1  ZINC000000992968   -0.1300
     15 C15         0.8201    1.8943   50.7043 C.ar    1  ZINC000000992968   -0.0500
     16 C16         1.9639    1.3874   50.1246 C.ar    1  ZINC000000992968   -0.1200
     17 C17         1.9405    0.9428   48.8129 C.ar    1  ZINC000000992968    0.0000
     18 Cl18        3.3849    0.3065   48.0901 Cl      1  ZINC000000992968   -0.0500
     19 C19         0.7692    1.0033   48.0758 C.ar    1  ZINC000000992968   -0.1200
     20 C20        -0.3825    1.5031   48.6459 C.ar    1  ZINC000000992968   -0.0400
     21 C21        -6.6101    2.9938   52.2651 C.ar    1  ZINC000000992968   -0.0600
     22 C22        -7.6975    3.2146   53.0791 C.ar    1  ZINC000000992968   -0.1200
     23 C23        -8.5908    1.5657   56.5724 C.2     1  ZINC000000992968   -0.0700
     24 C24        -8.4832    0.6491   57.5803 C.2     1  ZINC000000992968   -0.0900
     25 C25        -7.3748    1.0276   58.3528 C.2     1  ZINC000000992968   -0.2300
     26 C26        -6.8603    2.1441   57.7907 C.2     1  ZINC000000992968    0.0200
     27 O27        -7.5921    2.4618   56.7152 O.3     1  ZINC000000992968   -0.1500
     28 H28        -8.5283    0.0049   53.7804 H       1  ZINC000000992968    0.1400
     29 H29        -6.5953   -0.4078   52.3224 H       1  ZINC000000992968    0.1500
     30 H30        -4.2542    3.2987   50.4200 H       1  ZINC000000992968    0.1100
     31 H31        -3.6961    2.8083   52.0374 H       1  ZINC000000992968    0.1100
     32 H32         0.8397    2.2413   51.7268 H       1  ZINC000000992968    0.1500
     33 H33         2.8800    1.3374   50.6944 H       1  ZINC000000992968    0.1500
     34 H34         0.7572    0.6547   47.0537 H       1  ZINC000000992968    0.1500
     35 H35        -1.2950    1.5494   48.0702 H       1  ZINC000000992968    0.1500
     36 H36        -6.0730    3.8294   51.8412 H       1  ZINC000000992968    0.1400
     37 H37        -8.0116    4.2247   53.2967 H       1  ZINC000000992968    0.1400
     38 H38        -9.1266   -0.2016   57.7494 H       1  ZINC000000992968    0.1700
     39 H39        -7.0026    0.5218   59.2314 H       1  ZINC000000992968    0.1700
     40 H40        -5.9985    2.6881   58.1481 H       1  ZINC000000992968    0.2200
@<TRIPOS>BOND
     1     1     2    2
     2     2     3    1
     3     2    23    1
     4     3     4    1
     5     4    22   ar
     6     4     5   ar
     7     5     6   ar
     8     5    28    1
     9     6     7   ar
    10     6    29    1
    11     7     8    1
    12     7    21   ar
    13     8     9    2
    14     8    10    1
    15    10    11    1
    16    10    30    1
    17    10    31    1
    18    11    12    1
    19    12    13    2
    20    12    14    1
    21    14    20   ar
    22    14    15   ar
    23    15    16   ar
    24    15    32    1
    25    16    17   ar
    26    16    33    1
    27    17    18    1
    28    17    19   ar
    29    19    20   ar
    30    19    34    1
    31    20    35    1
    32    21    22   ar
    33    21    36    1
    34    22    37    1
    35    23    27    1
    36    23    24    2
    37    24    25    1
    38    24    38    1
    39    25    26    2
    40    25    39    1
    41    26    27    1
    42    26    40    1
@<TRIPOS>SUBSTRUCTURE
     1 ZINC000000992968        1 TEMP              0 ****  ****    0 ROOT


##########                                Name:    ZINC000182044395
##########                DOCK_Rotatable_Bonds:                   8
##########                         Heavy_Atoms:                  28
##########                    Molecular_Weight:             398.889
##########                DOCK_Rotatable_Bonds:                   8
##########                       Formal_Charge:          -0.0399999
##########                     HBond_Acceptors:                   6
##########                        HBond_Donors:                   2
##########                         Heavy_Atoms:                  28
##########                          Grid_Score:          -32.906300
##########                     Grid_vdw_energy:          -31.662365
##########                      Grid_es_energy:           -1.243934
##########           Internal_energy_repulsive:           19.989422

@<TRIPOS>MOLECULE
ZINC000182044395
 51 53 1 0 0
SMALL
USER_CHARGES


@<TRIPOS>ATOM
      1 C1         -5.5680    0.6235   50.8849 C.3     1  ZINC000182044395   -0.1800
      2 C2         -5.5275    2.1530   50.8845 C.3     1  ZINC000182044395    0.0800
      3 N3         -4.5021    2.6147   51.8235 N.pl3   1  ZINC000182044395   -0.4800
      4 C4         -4.8813    2.9968   53.0499 C.2     1  ZINC000182044395    0.2500
      5 C5         -3.9788    3.4440   53.9926 C.2     1  ZINC000182044395   -0.3500
      6 C6         -4.4357    3.8544   55.3296 C.2     1  ZINC000182044395    0.5900
      7 O7         -3.6271    4.2084   56.1666 O.2     1  ZINC000182044395   -0.5600
      8 N8         -5.7502    3.8383   55.6270 N.am    1  ZINC000182044395   -0.7200
      9 C9         -6.2051    4.2470   56.9583 C.3     1  ZINC000182044395    0.1100
     10 H10        -5.3960    4.1119   57.6760 H       1  ZINC000182044395    0.0900
     11 C11        -6.6179    5.7199   56.9262 C.3     1  ZINC000182044395   -0.1600
     12 C12        -7.4032    3.3904   57.3730 C.3     1  ZINC000182044395    0.1100
     13 H13        -7.7652    3.7196   58.3470 H       1  ZINC000182044395    0.1100
     14 O14        -8.4455    3.5291   56.4055 O.3     1  ZINC000182044395   -0.5500
     15 C15        -6.9767    1.9234   57.4565 C.3     1  ZINC000182044395   -0.1100
     16 C16        -8.1296    1.0930   57.9586 C.ar    1  ZINC000182044395   -0.0800
     17 C17        -8.2907    0.8827   59.3154 C.ar    1  ZINC000182044395   -0.1000
     18 C18        -9.3480    0.1206   59.7760 C.ar    1  ZINC000182044395   -0.1200
     19 C19       -10.2447   -0.4305   58.8799 C.ar    1  ZINC000182044395   -0.1200
     20 C20       -10.0810   -0.2243   57.5228 C.ar    1  ZINC000182044395   -0.1200
     21 C21        -9.0258    0.5411   57.0625 C.ar    1  ZINC000182044395   -0.1200
     22 C22        -2.5526    3.5095   53.6368 C.2     1  ZINC000182044395    0.4400
     23 O23        -1.7171    3.9022   54.4322 O.2     1  ZINC000182044395   -0.4900
     24 C24        -2.1764    3.0745   52.2787 C.ar    1  ZINC000182044395   -0.1800
     25 C25        -0.8476    3.0972   51.8561 C.ar    1  ZINC000182044395   -0.0200
     26 C26        -0.5328    2.6895   50.5774 C.ar    1  ZINC000182044395   -0.0700
     27 Cl27        1.1191    2.7154   50.0438 Cl      1  ZINC000182044395   -0.0500
     28 C28        -1.5313    2.2576   49.7147 C.ar    1  ZINC000182044395   -0.0500
     29 C29        -2.8478    2.2298   50.1200 C.ar    1  ZINC000182044395   -0.1600
     30 C30        -3.1885    2.6377   51.4070 C.ar    1  ZINC000182044395    0.1900
     31 H31        -5.8057    0.2666   51.8871 H       1  ZINC000182044395    0.0700
     32 H32        -6.3309    0.2799   50.1863 H       1  ZINC000182044395    0.0800
     33 H33        -4.5960    0.2343   50.5818 H       1  ZINC000182044395    0.0700
     34 H34        -6.4996    2.5422   51.1877 H       1  ZINC000182044395    0.1000
     35 H35        -5.2897    2.5098   49.8824 H       1  ZINC000182044395    0.1100
     36 H36        -5.9287    2.9531   53.3098 H       1  ZINC000182044395    0.1800
     37 H37        -6.3950    3.5561   54.9595 H       1  ZINC000182044395    0.4100
     38 H38        -5.7644    6.3300   56.6308 H       1  ZINC000182044395    0.0600
     39 H39        -7.4270    5.8549   56.2085 H       1  ZINC000182044395    0.0600
     40 H40        -6.9564    6.0239   57.9168 H       1  ZINC000182044395    0.0600
     41 H41        -8.1926    3.2565   55.5129 H       1  ZINC000182044395    0.3700
     42 H42        -6.1347    1.8283   58.1421 H       1  ZINC000182044395    0.0800
     43 H43        -6.6810    1.5741   56.4672 H       1  ZINC000182044395    0.0800
     44 H44        -7.5903    1.3136   60.0155 H       1  ZINC000182044395    0.1200
     45 H45        -9.4736   -0.0440   60.8359 H       1  ZINC000182044395    0.1200
     46 H46       -11.0709   -1.0260   59.2397 H       1  ZINC000182044395    0.1200
     47 H47       -10.7790   -0.6586   56.8224 H       1  ZINC000182044395    0.1200
     48 H48        -8.8999    0.7052   56.0024 H       1  ZINC000182044395    0.1200
     49 H49        -0.0700    3.4323   52.5265 H       1  ZINC000182044395    0.1500
     50 H50        -1.2733    1.9398   48.7153 H       1  ZINC000182044395    0.1500
     51 H51        -3.6153    1.8916   49.4397 H       1  ZINC000182044395    0.1500
@<TRIPOS>BOND
     1     1     2    1
     2     1    31    1
     3     1    32    1
     4     1    33    1
     5     2     3    1
     6     2    34    1
     7     2    35    1
     8     3    30    1
     9     3     4    1
    10     4     5    2
    11     4    36    1
    12     5     6    1
    13     5    22    1
    14     6     7    2
    15     6     8   am
    16     8     9    1
    17     8    37    1
    18     9    10    1
    19     9    11    1
    20     9    12    1
    21    11    38    1
    22    11    39    1
    23    11    40    1
    24    12    13    1
    25    12    14    1
    26    12    15    1
    27    14    41    1
    28    15    16    1
    29    15    42    1
    30    15    43    1
    31    16    21   ar
    32    16    17   ar
    33    17    18   ar
    34    17    44    1
    35    18    19   ar
    36    18    45    1
    37    19    20   ar
    38    19    46    1
    39    20    21   ar
    40    20    47    1
    41    21    48    1
    42    22    23    2
    43    22    24    1
    44    24    30   ar
    45    24    25   ar
    46    25    26   ar
    47    25    49    1
    48    26    27    1
    49    26    28   ar
    50    28    29   ar
    51    28    50    1
    52    29    30   ar
    53    29    51    1
@<TRIPOS>SUBSTRUCTURE
     1 ZINC000182044395        1 TEMP              0 ****  ****    0 ROOT


##########                                Name:    ZINC000547864253
##########                DOCK_Rotatable_Bonds:                   6
##########                         Heavy_Atoms:                  30
##########                    Molecular_Weight:             422.548
##########                DOCK_Rotatable_Bonds:                   6
##########                       Formal_Charge:           0.0300002
##########                     HBond_Acceptors:                   6
##########                        HBond_Donors:                   2
##########                         Heavy_Atoms:                  30
##########                          Grid_Score:          -32.886513
##########                     Grid_vdw_energy:          -31.831448
##########                      Grid_es_energy:           -1.055065
##########           Internal_energy_repulsive:           12.327359

@<TRIPOS>MOLECULE
ZINC000547864253
 56 60 1 0 0
SMALL
USER_CHARGES


@<TRIPOS>ATOM
      1 O1         -9.7237   -0.5831   52.7266 O.2     1  ZINC000547864253   -0.5300
      2 C2         -9.8302    0.3573   53.4849 C.2     1  ZINC000547864253    0.5400
      3 N3         -8.8202    1.2412   53.6084 N.am    1  ZINC000547864253   -0.7200
      4 C4         -7.5914    1.0625   52.8311 C.3     1  ZINC000547864253    0.1300
      5 C5         -6.8478    2.3964   52.7388 C.3     1  ZINC000547864253    0.0200
      6 H6         -6.6958    2.7977   53.7408 H       1  ZINC000547864253    0.0900
      7 C7         -5.5117    2.1819   52.0757 C.2     1  ZINC000547864253   -0.1600
      8 C8         -5.2270    1.2745   51.1283 C.2     1  ZINC000547864253    0.0600
      9 N9         -3.9111    1.3747   50.7666 N.pl3   1  ZINC000547864253   -0.5900
     10 C10        -3.3013    2.3745   51.4909 C.ar    1  ZINC000547864253    0.1000
     11 C11        -2.0073    2.8835   51.5195 C.ar    1  ZINC000547864253   -0.1300
     12 C12        -1.6966    3.9155   52.3781 C.ar    1  ZINC000547864253   -0.1000
     13 C13        -2.6628    4.4540   53.2163 C.ar    1  ZINC000547864253   -0.1400
     14 C14        -3.9405    3.9692   53.2045 C.ar    1  ZINC000547864253   -0.0700
     15 C15        -4.2787    2.9282   52.3381 C.ar    1  ZINC000547864253   -0.1000
     16 C16        -7.6615    3.3701   51.9259 C.ar    1  ZINC000547864253   -0.0700
     17 C17        -7.4712    3.4580   50.5595 C.ar    1  ZINC000547864253   -0.1100
     18 C18        -8.2177    4.3511   49.8138 C.ar    1  ZINC000547864253   -0.1200
     19 C19        -9.1547    5.1560   50.4344 C.ar    1  ZINC000547864253   -0.1200
     20 C20        -9.3457    5.0673   51.8006 C.ar    1  ZINC000547864253   -0.1100
     21 C21        -8.6022    4.1712   52.5457 C.ar    1  ZINC000547864253   -0.1200
     22 C22       -11.0943    0.5411   54.2846 C.3     1  ZINC000547864253   -0.1700
     23 H23       -11.9546    0.9096   53.7257 H       1  ZINC000547864253    0.1400
     24 C24       -10.9506    0.9930   55.7390 C.3     1  ZINC000547864253   -0.1300
     25 C25       -11.3613   -0.4481   55.4222 C.3     1  ZINC000547864253   -0.1400
     26 C26       -12.8159   -0.8393   55.6862 C.3     1  ZINC000547864253   -0.0700
     27 C27       -13.0036   -1.1561   57.1714 C.3     1  ZINC000547864253   -0.6000
     28 S28       -11.9304   -2.5482   57.6255 S.o2    1  ZINC000547864253    2.4200
     29 O29       -11.9578   -2.7007   59.0380 O.2     1  ZINC000547864253   -0.9400
     30 O30       -12.2540   -3.6589   56.8004 O.2     1  ZINC000547864253   -0.9300
     31 C31       -10.2967   -1.9208   57.1415 C.3     1  ZINC000547864253   -0.6000
     32 C32       -10.3213   -1.5441   55.6586 C.3     1  ZINC000547864253   -0.0700
     33 H33        -8.9069    1.9955   54.2119 H       1  ZINC000547864253    0.4000
     34 H34        -6.9556    0.3251   53.3209 H       1  ZINC000547864253    0.0800
     35 H35        -7.8428    0.7166   51.8284 H       1  ZINC000547864253    0.0700
     36 H36        -5.9320    0.5695   50.7133 H       1  ZINC000547864253    0.1700
     37 H37        -3.4731    0.8235   50.0994 H       1  ZINC000547864253    0.4200
     38 H38        -1.2483    2.4708   50.8713 H       1  ZINC000547864253    0.1200
     39 H39        -0.6911    4.3090   52.3991 H       1  ZINC000547864253    0.1300
     40 H40        -2.4027    5.2625   53.8835 H       1  ZINC000547864253    0.1200
     41 H41        -4.6870    4.3933   53.8596 H       1  ZINC000547864253    0.1200
     42 H42        -6.7390    2.8292   50.0747 H       1  ZINC000547864253    0.1200
     43 H43        -8.0684    4.4203   48.7464 H       1  ZINC000547864253    0.1200
     44 H44        -9.7374    5.8542   49.8518 H       1  ZINC000547864253    0.1200
     45 H45       -10.0775    5.6964   52.2855 H       1  ZINC000547864253    0.1200
     46 H46        -8.7515    4.1019   53.6131 H       1  ZINC000547864253    0.1200
     47 H47        -9.9418    1.1573   56.1176 H       1  ZINC000547864253    0.1100
     48 H48       -11.7165    1.6585   56.1372 H       1  ZINC000547864253    0.1100
     49 H49       -13.4701   -0.0137   55.4059 H       1  ZINC000547864253    0.0900
     50 H50       -13.0683   -1.7184   55.0932 H       1  ZINC000547864253    0.0900
     51 H51       -12.7379   -0.2823   57.7664 H       1  ZINC000547864253    0.1400
     52 H52       -14.0440   -1.4223   57.3583 H       1  ZINC000547864253    0.1400
     53 H53       -10.0536   -1.0408   57.7369 H       1  ZINC000547864253    0.1400
     54 H54        -9.5459   -2.6932   57.3087 H       1  ZINC000547864253    0.1400
     55 H55       -10.5784   -2.4219   55.0657 H       1  ZINC000547864253    0.0900
     56 H56        -9.3377   -1.1812   55.3604 H       1  ZINC000547864253    0.0900
@<TRIPOS>BOND
     1     1     2    2
     2     2     3   am
     3     2    22    1
     4     3     4    1
     5     3    33    1
     6     4     5    1
     7     4    34    1
     8     4    35    1
     9     5     6    1
    10     5     7    1
    11     5    16    1
    12     7    15    1
    13     7     8    2
    14     8     9    1
    15     8    36    1
    16     9    10    1
    17     9    37    1
    18    10    15   ar
    19    10    11   ar
    20    11    12   ar
    21    11    38    1
    22    12    13   ar
    23    12    39    1
    24    13    14   ar
    25    13    40    1
    26    14    15   ar
    27    14    41    1
    28    16    21   ar
    29    16    17   ar
    30    17    18   ar
    31    17    42    1
    32    18    19   ar
    33    18    43    1
    34    19    20   ar
    35    19    44    1
    36    20    21   ar
    37    20    45    1
    38    21    46    1
    39    22    23    1
    40    22    25    1
    41    22    24    1
    42    24    25    1
    43    24    47    1
    44    24    48    1
    45    25    32    1
    46    25    26    1
    47    26    27    1
    48    26    49    1
    49    26    50    1
    50    27    28    1
    51    27    51    1
    52    27    52    1
    53    28    29    2
    54    28    30    2
    55    28    31    1
    56    31    32    1
    57    31    53    1
    58    31    54    1
    59    32    55    1
    60    32    56    1
@<TRIPOS>SUBSTRUCTURE
     1 ZINC000547864253        1 TEMP              0 ****  ****    0 ROOT


##########                                Name:    ZINC000045927156
##########                DOCK_Rotatable_Bonds:                   7
##########                         Heavy_Atoms:                  30
##########                    Molecular_Weight:             418.522
##########                DOCK_Rotatable_Bonds:                   7
##########                       Formal_Charge:           0.0200001
##########                     HBond_Acceptors:                   8
##########                        HBond_Donors:                   1
##########                         Heavy_Atoms:                  30
##########                          Grid_Score:          -32.874687
##########                     Grid_vdw_energy:          -31.830521
##########                      Grid_es_energy:           -1.044168
##########           Internal_energy_repulsive:           19.312294

@<TRIPOS>MOLECULE
ZINC000045927156
 52 56 1 0 0
SMALL
USER_CHARGES


@<TRIPOS>ATOM
      1 O1         -9.7985   -1.5973   59.4552 O.2     1  ZINC000045927156   -0.5800
      2 C2         -9.7022   -0.5494   58.8460 C.2     1  ZINC000045927156    0.7300
      3 N3         -9.1679    0.5325   59.4464 N.am    1  ZINC000045927156   -0.7400
      4 C4         -8.7086    0.4476   60.8350 C.3     1  ZINC000045927156    0.1700
      5 C5         -9.8410    0.8087   61.7615 C.ar    1  ZINC000045927156   -0.0700
      6 C6        -11.0635    1.1908   61.2425 C.ar    1  ZINC000045927156   -0.1000
      7 C7        -12.1024    1.5221   62.0925 C.ar    1  ZINC000045927156   -0.1100
      8 C8        -11.9183    1.4707   63.4614 C.ar    1  ZINC000045927156   -0.1100
      9 C9        -10.6956    1.0876   63.9806 C.ar    1  ZINC000045927156   -0.1000
     10 C10        -9.6584    0.7523   63.1309 C.ar    1  ZINC000045927156   -0.1000
     11 C11        -8.3256    0.3346   63.6969 C.3     1  ZINC000045927156    0.1700
     12 N12        -8.4120    0.2774   65.1582 N.pl3   1  ZINC000045927156   -0.3800
     13 C13        -8.0318    1.2313   66.0257 C.2     1  ZINC000045927156    0.2500
     14 N14        -8.2727    0.7982   67.2366 N.2     1  ZINC000045927156   -0.5400
     15 C15        -8.8043   -0.4224   67.1827 C.2     1  ZINC000045927156    0.2000
     16 N16        -8.9143   -0.7824   65.9309 N.2     1  ZINC000045927156   -0.3100
     17 N17       -10.1247   -0.4713   57.5686 N.am    1  ZINC000045927156   -0.6200
     18 C18       -10.0634    0.7292   56.7151 C.3     1  ZINC000045927156    0.1000
     19 C19       -10.0577    0.1850   55.2648 C.3     1  ZINC000045927156   -0.1300
     20 C20       -11.0217   -1.0251   55.3825 C.3     1  ZINC000045927156   -0.1200
     21 C21       -10.7172   -1.5710   56.7933 C.3     1  ZINC000045927156    0.2300
     22 H22       -10.0163   -2.4030   56.7255 H       1  ZINC000045927156    0.1000
     23 C23       -11.9930   -2.0284   57.4523 C.2     1  ZINC000045927156    0.0900
     24 N24       -12.6281   -1.3554   58.3356 N.2     1  ZINC000045927156   -0.4500
     25 C25       -13.7576   -1.8877   58.8400 C.ar    1  ZINC000045927156    0.0800
     26 C26       -14.6409   -1.3718   59.8093 C.ar    1  ZINC000045927156   -0.0700
     27 C27       -15.7423   -2.0796   60.1852 C.ar    1  ZINC000045927156   -0.1100
     28 C28       -16.0163   -3.3182   59.6230 C.ar    1  ZINC000045927156   -0.1000
     29 C29       -15.1709   -3.8471   58.6735 C.ar    1  ZINC000045927156   -0.0700
     30 C30       -14.0398   -3.1374   58.2769 C.ar    1  ZINC000045927156   -0.1800
     31 S31       -12.7752   -3.5055   57.1082 S.3     1  ZINC000045927156    0.1200
     32 H32        -9.0874    1.3674   58.9591 H       1  ZINC000045927156    0.3900
     33 H33        -8.3763   -0.5687   61.0462 H       1  ZINC000045927156    0.1000
     34 H34        -7.8803    1.1396   60.9867 H       1  ZINC000045927156    0.0700
     35 H35       -11.2074    1.2309   60.1728 H       1  ZINC000045927156    0.1300
     36 H36       -13.0575    1.8213   61.6870 H       1  ZINC000045927156    0.1300
     37 H37       -12.7296    1.7301   64.1254 H       1  ZINC000045927156    0.1300
     38 H38       -10.5517    1.0478   65.0503 H       1  ZINC000045927156    0.1300
     39 H39        -8.0587   -0.6488   63.3099 H       1  ZINC000045927156    0.1100
     40 H40        -7.5644    1.0585   63.4060 H       1  ZINC000045927156    0.1000
     41 H41        -7.6019    2.1879   65.7683 H       1  ZINC000045927156    0.2200
     42 H42        -9.1003   -1.0162   68.0348 H       1  ZINC000045927156    0.2200
     43 H43       -10.9384    1.3577   56.8811 H       1  ZINC000045927156    0.0700
     44 H44        -9.1496    1.2895   56.9136 H       1  ZINC000045927156    0.0800
     45 H45       -10.4457    0.9273   54.5674 H       1  ZINC000045927156    0.0900
     46 H46        -9.0586   -0.1385   54.9728 H       1  ZINC000045927156    0.0800
     47 H47       -12.0594   -0.7002   55.3063 H       1  ZINC000045927156    0.0900
     48 H48       -10.7945   -1.7743   54.6242 H       1  ZINC000045927156    0.0900
     49 H49       -14.4431   -0.4092   60.2574 H       1  ZINC000045927156    0.1300
     50 H50       -16.4101   -1.6722   60.9298 H       1  ZINC000045927156    0.1400
     51 H51       -16.8934   -3.8682   59.9308 H       1  ZINC000045927156    0.1400
     52 H52       -15.3844   -4.8115   58.2370 H       1  ZINC000045927156    0.1300
@<TRIPOS>BOND
     1     1     2    2
     2     2     3   am
     3     2    17   am
     4     3     4    1
     5     3    32    1
     6     4     5    1
     7     4    33    1
     8     4    34    1
     9     5    10   ar
    10     5     6   ar
    11     6     7   ar
    12     6    35    1
    13     7     8   ar
    14     7    36    1
    15     8     9   ar
    16     8    37    1
    17     9    10   ar
    18     9    38    1
    19    10    11    1
    20    11    12    1
    21    11    39    1
    22    11    40    1
    23    12    16    1
    24    12    13    1
    25    13    14    2
    26    13    41    1
    27    14    15    1
    28    15    16    2
    29    15    42    1
    30    17    21    1
    31    17    18    1
    32    18    19    1
    33    18    43    1
    34    18    44    1
    35    19    20    1
    36    19    45    1
    37    19    46    1
    38    20    21    1
    39    20    47    1
    40    20    48    1
    41    21    22    1
    42    21    23    1
    43    23    31    1
    44    23    24    2
    45    24    25    1
    46    25    30   ar
    47    25    26   ar
    48    26    27   ar
    49    26    49    1
    50    27    28   ar
    51    27    50    1
    52    28    29   ar
    53    28    51    1
    54    29    30   ar
    55    29    52    1
    56    30    31    1
@<TRIPOS>SUBSTRUCTURE
     1 ZINC000045927156        1 TEMP              0 ****  ****    0 ROOT


##########                                Name:    ZINC000671418508
##########                DOCK_Rotatable_Bonds:                   9
##########                         Heavy_Atoms:                  28
##########                    Molecular_Weight:             405.884
##########                DOCK_Rotatable_Bonds:                   9
##########                       Formal_Charge:         -1.3411e-07
##########                     HBond_Acceptors:                   9
##########                        HBond_Donors:                   2
##########                         Heavy_Atoms:                  28
##########                          Grid_Score:          -32.870960
##########                     Grid_vdw_energy:          -31.824265
##########                      Grid_es_energy:           -1.046695
##########           Internal_energy_repulsive:           21.059006

@<TRIPOS>MOLECULE
ZINC000671418508
 52 54 1 0 0
SMALL
USER_CHARGES


@<TRIPOS>ATOM
      1 C1          0.9988    1.7692   50.4370 C.3     1  ZINC000671418508    0.1000
      2 N2         -0.4314    2.0869   50.4246 N.pl3   1  ZINC000671418508   -0.3700
      3 C3         -1.1074    2.7424   51.3911 C.2     1  ZINC000671418508    0.0800
      4 C4         -2.4001    2.8328   51.0015 C.2     1  ZINC000671418508   -0.2700
      5 C5         -3.5155    3.4881   51.7746 C.3     1  ZINC000671418508    0.2000
      6 N6         -4.4577    2.4649   52.2345 N.am    1  ZINC000671418508   -0.6900
      7 C7         -5.5465    2.1711   51.4964 C.2     1  ZINC000671418508    0.5100
      8 O8         -5.7470    2.7550   50.4517 O.2     1  ZINC000671418508   -0.5100
      9 C9         -6.5067    1.1260   51.9645 C.2     1  ZINC000671418508    0.5100
     10 O10        -6.3311   -0.0370   51.6657 O.2     1  ZINC000671418508   -0.5200
     11 N11        -7.5679    1.4752   52.7187 N.am    1  ZINC000671418508   -0.5800
     12 C12        -7.8028    2.8796   53.0870 C.3     1  ZINC000671418508    0.0800
     13 C13        -9.2482    3.2414   52.7292 C.3     1  ZINC000671418508    0.0400
     14 N14       -10.1607    2.2745   53.3539 N.3     1  ZINC000671418508   -0.5200
     15 C15       -11.5608    2.6830   53.1789 C.3     1  ZINC000671418508    0.1300
     16 H16       -11.6142    3.7679   53.0887 H       1  ZINC000671418508    0.0600
     17 C17       -12.3791    2.2310   54.3901 C.3     1  ZINC000671418508    0.0900
     18 O18       -11.9896    2.9885   55.5375 O.3     1  ZINC000671418508   -0.5500
     19 C19       -12.1173    2.0471   51.9311 C.ar    1  ZINC000671418508   -0.0800
     20 C20       -12.8196    0.8594   52.0151 C.ar    1  ZINC000671418508   -0.0600
     21 C21       -13.3303    0.2757   50.8710 C.ar    1  ZINC000671418508   -0.1200
     22 C22       -13.1385    0.8804   49.6415 C.ar    1  ZINC000671418508   -0.0300
     23 Cl23      -13.7799    0.1482   48.2042 Cl      1  ZINC000671418508   -0.0700
     24 C24       -12.4355    2.0691   49.5580 C.ar    1  ZINC000671418508   -0.1200
     25 C25       -11.9302    2.6547   50.7035 C.ar    1  ZINC000671418508   -0.1100
     26 C26        -9.9387    0.9190   52.8329 C.3     1  ZINC000671418508    0.0400
     27 C27        -8.5250    0.4628   53.1899 C.3     1  ZINC000671418508    0.1100
     28 C28        -2.5181    2.2112   49.7541 C.2     1  ZINC000671418508    0.0700
     29 N29        -1.3373    1.7691   49.4045 N.2     1  ZINC000671418508   -0.2900
     30 H30         1.5565    2.5867   49.9800 H       1  ZINC000671418508    0.0800
     31 H31         1.3317    1.6328   51.4659 H       1  ZINC000671418508    0.0900
     32 H32         1.1721    0.8519   49.8742 H       1  ZINC000671418508    0.0900
     33 H33        -0.6914    3.1258   52.3111 H       1  ZINC000671418508    0.1800
     34 H34        -3.1011    4.0136   52.6351 H       1  ZINC000671418508    0.0800
     35 H35        -4.0353    4.1979   51.1312 H       1  ZINC000671418508    0.0800
     36 H36        -4.2981    1.9990   53.0701 H       1  ZINC000671418508    0.4100
     37 H37        -7.6476    3.0080   54.1583 H       1  ZINC000671418508    0.0800
     38 H38        -7.1170    3.5225   52.5352 H       1  ZINC000671418508    0.1400
     39 H39        -9.4735    4.2431   53.0951 H       1  ZINC000671418508    0.0900
     40 H40        -9.3730    3.2126   51.6467 H       1  ZINC000671418508    0.0400
     41 H41       -13.4391    2.3903   54.1923 H       1  ZINC000671418508    0.0500
     42 H42       -12.1992    1.1721   54.5756 H       1  ZINC000671418508    0.0500
     43 H43       -11.0378    2.9824   55.7082 H       1  ZINC000671418508    0.3800
     44 H44       -12.9690    0.3872   52.9748 H       1  ZINC000671418508    0.1400
     45 H45       -13.8786   -0.6524   50.9367 H       1  ZINC000671418508    0.1300
     46 H46       -12.2851    2.5414   48.5985 H       1  ZINC000671418508    0.1300
     47 H47       -11.3818    3.5829   50.6385 H       1  ZINC000671418508    0.1300
     48 H48       -10.6650    0.2363   53.2741 H       1  ZINC000671418508    0.0900
     49 H49       -10.0539    0.9225   51.7491 H       1  ZINC000671418508    0.0400
     50 H50        -8.3162   -0.4929   52.7088 H       1  ZINC000671418508    0.1000
     51 H51        -8.4359    0.3586   54.2713 H       1  ZINC000671418508    0.0800
     52 H52        -3.4260    2.1170   49.1768 H       1  ZINC000671418508    0.1900
@<TRIPOS>BOND
     1     1     2    1
     2     1    30    1
     3     1    31    1
     4     1    32    1
     5     2    29    1
     6     2     3    1
     7     3     4    2
     8     3    33    1
     9     4     5    1
    10     4    28    1
    11     5     6    1
    12     5    34    1
    13     5    35    1
    14     6     7   am
    15     6    36    1
    16     7     8    2
    17     7     9    1
    18     9    10    2
    19     9    11   am
    20    11    27    1
    21    11    12    1
    22    12    13    1
    23    12    37    1
    24    12    38    1
    25    13    14    1
    26    13    39    1
    27    13    40    1
    28    14    15    1
    29    14    26    1
    30    15    16    1
    31    15    17    1
    32    15    19    1
    33    17    18    1
    34    17    41    1
    35    17    42    1
    36    18    43    1
    37    19    25   ar
    38    19    20   ar
    39    20    21   ar
    40    20    44    1
    41    21    22   ar
    42    21    45    1
    43    22    23    1
    44    22    24   ar
    45    24    25   ar
    46    24    46    1
    47    25    47    1
    48    26    27    1
    49    26    48    1
    50    26    49    1
    51    27    50    1
    52    27    51    1
    53    28    29    2
    54    28    52    1
@<TRIPOS>SUBSTRUCTURE
     1 ZINC000671418508        1 TEMP              0 ****  ****    0 ROOT


##########                                Name:    ZINC000175255939
##########                DOCK_Rotatable_Bonds:                   8
##########                         Heavy_Atoms:                  28
##########                    Molecular_Weight:             394.375
##########                DOCK_Rotatable_Bonds:                   8
##########                       Formal_Charge:          -0.0399999
##########                     HBond_Acceptors:                   9
##########                        HBond_Donors:                   1
##########                         Heavy_Atoms:                  28
##########                          Grid_Score:          -32.814236
##########                     Grid_vdw_energy:          -32.390259
##########                      Grid_es_energy:           -0.423978
##########           Internal_energy_repulsive:            8.531849

@<TRIPOS>MOLECULE
ZINC000175255939
 48 50 1 0 0
SMALL
USER_CHARGES


@<TRIPOS>ATOM
      1 C1        -10.3736   -3.3961   56.6222 C.3     1  ZINC000175255939    0.0300
      2 O2        -10.1674   -2.3349   55.6527 O.3     1  ZINC000175255939   -0.3600
      3 C3        -10.8674   -1.2033   55.8298 C.2     1  ZINC000175255939    0.4600
      4 O4        -11.5889   -1.0834   56.7915 O.2     1  ZINC000175255939   -0.5000
      5 C5        -10.7534   -0.0825   54.8289 C.3     1  ZINC000175255939   -0.0800
      6 H6        -11.4935   -0.2222   54.0410 H       1  ZINC000175255939    0.1100
      7 C7        -11.0012    1.2546   55.5301 C.3     1  ZINC000175255939   -0.1200
      8 C8        -10.8853    2.3925   54.5139 C.3     1  ZINC000175255939   -0.1100
      9 C9         -9.4828    2.3895   53.9026 C.3     1  ZINC000175255939   -0.1200
     10 C10        -9.2350    1.0524   53.2013 C.3     1  ZINC000175255939   -0.1000
     11 H11        -9.9750    0.9127   52.4134 H       1  ZINC000175255939    0.1100
     12 C12        -7.8535    1.0495   52.5992 C.2     1  ZINC000175255939    0.5100
     13 O13        -7.1894    0.0348   52.6100 O.2     1  ZINC000175255939   -0.4800
     14 N14        -7.3560    2.1746   52.0487 N.am    1  ZINC000175255939   -0.6300
     15 C15        -6.0832    2.1723   51.4956 C.2     1  ZINC000175255939    0.2100
     16 C16        -4.9387    2.6247   52.0813 C.2     1  ZINC000175255939   -0.2600
     17 C17        -3.9400    2.3931   51.1000 C.2     1  ZINC000175255939    0.0900
     18 C18        -2.4929    2.7015   51.2122 C.ar    1  ZINC000175255939   -0.0500
     19 C19        -2.0214    3.4588   52.2830 C.ar    1  ZINC000175255939   -0.0600
     20 C20        -0.6762    3.7438   52.3848 C.ar    1  ZINC000175255939   -0.1300
     21 C21         0.2085    3.2774   51.4215 C.ar    1  ZINC000175255939    0.1200
     22 O22         1.5333    3.5597   51.5243 O.3     1  ZINC000175255939   -0.3200
     23 C23         2.2175    3.0530   52.6719 C.3     1  ZINC000175255939    0.4100
     24 F24         2.9246    1.8979   52.3209 F       1  ZINC000175255939   -0.2000
     25 F25         3.1100    4.0198   53.1473 F       1  ZINC000175255939   -0.2000
     26 C26        -0.2584    2.5226   50.3537 C.ar    1  ZINC000175255939   -0.1900
     27 C27        -1.6018    2.2293   50.2502 C.ar    1  ZINC000175255939   -0.0500
     28 N28        -4.5522    1.8520   50.0739 N.2     1  ZINC000175255939   -0.3600
     29 O29        -5.7358    1.7187   50.2807 O.3     1  ZINC000175255939    0.1200
     30 C30        -9.3508   -0.0854   54.2175 C.3     1  ZINC000175255939   -0.0900
     31 H31        -9.7494   -4.2513   56.3631 H       1  ZINC000175255939    0.1000
     32 H32       -10.1046   -3.0377   57.6159 H       1  ZINC000175255939    0.0600
     33 H33       -11.4215   -3.6958   56.6155 H       1  ZINC000175255939    0.0600
     34 H34       -12.0004    1.2567   55.9656 H       1  ZINC000175255939    0.0800
     35 H35       -10.2611    1.3943   56.3180 H       1  ZINC000175255939    0.0700
     36 H36       -11.6255    2.2528   53.7260 H       1  ZINC000175255939    0.0700
     37 H37       -11.0620    3.3451   55.0135 H       1  ZINC000175255939    0.0800
     38 H38        -9.4003    3.2002   53.1786 H       1  ZINC000175255939    0.0700
     39 H39        -8.7427    2.5293   54.6905 H       1  ZINC000175255939    0.0800
     40 H40        -7.8876    2.9859   52.0389 H       1  ZINC000175255939    0.4300
     41 H41        -4.8196    3.0585   53.0631 H       1  ZINC000175255939    0.1800
     42 H42        -2.7091    3.8225   53.0322 H       1  ZINC000175255939    0.1400
     43 H43        -0.3103    4.3308   53.2142 H       1  ZINC000175255939    0.1400
     44 H44         1.4931    2.8131   53.4503 H       1  ZINC000175255939    0.1900
     45 H45         0.4319    2.1612   49.6059 H       1  ZINC000175255939    0.1400
     46 H46        -1.9643    1.6419   49.4196 H       1  ZINC000175255939    0.1400
     47 H47        -8.6107    0.0543   55.0054 H       1  ZINC000175255939    0.0900
     48 H48        -9.1742   -1.0380   53.7180 H       1  ZINC000175255939    0.0800
@<TRIPOS>BOND
     1     1     2    1
     2     1    31    1
     3     1    32    1
     4     1    33    1
     5     2     3    1
     6     3     4    2
     7     3     5    1
     8     5     6    1
     9     5    30    1
    10     5     7    1
    11     7     8    1
    12     7    34    1
    13     7    35    1
    14     8     9    1
    15     8    36    1
    16     8    37    1
    17     9    10    1
    18     9    38    1
    19     9    39    1
    20    10    11    1
    21    10    12    1
    22    10    30    1
    23    12    13    2
    24    12    14   am
    25    14    15    1
    26    14    40    1
    27    15    29    1
    28    15    16    2
    29    16    17    1
    30    16    41    1
    31    17    18    1
    32    17    28    2
    33    18    27   ar
    34    18    19   ar
    35    19    20   ar
    36    19    42    1
    37    20    21   ar
    38    20    43    1
    39    21    22    1
    40    21    26   ar
    41    22    23    1
    42    23    24    1
    43    23    25    1
    44    23    44    1
    45    26    27   ar
    46    26    45    1
    47    27    46    1
    48    28    29    1
    49    30    47    1
    50    30    48    1
@<TRIPOS>SUBSTRUCTURE
     1 ZINC000175255939        1 TEMP              0 ****  ****    0 ROOT


##########                                Name:    ZINC000771225867
##########                DOCK_Rotatable_Bonds:                   9
##########                         Heavy_Atoms:                  23
##########                    Molecular_Weight:             355.802
##########                DOCK_Rotatable_Bonds:                   9
##########                       Formal_Charge:        -3.12924e-07
##########                     HBond_Acceptors:                   9
##########                        HBond_Donors:                   3
##########                         Heavy_Atoms:                  23
##########                          Grid_Score:          -32.787766
##########                     Grid_vdw_energy:          -32.413078
##########                      Grid_es_energy:           -0.374689
##########           Internal_energy_repulsive:            9.383726

@<TRIPOS>MOLECULE
ZINC000771225867
 37 38 1 0 0
SMALL
USER_CHARGES


@<TRIPOS>ATOM
      1 C1        -10.8241   -1.1801   54.8015 C.3     1  ZINC000771225867    0.0400
      2 O2         -9.7103   -0.8718   53.9609 O.3     1  ZINC000771225867   -0.3600
      3 C3         -9.2610    0.4008   53.9813 C.2     1  ZINC000771225867    0.5500
      4 O4         -9.7885    1.2208   54.7097 O.2     1  ZINC000771225867   -0.4900
      5 C5         -8.1766    0.7816   53.1553 C.2     1  ZINC000771225867   -0.3400
      6 C6         -7.7991    2.0652   52.8586 C.2     1  ZINC000771225867    0.2700
      7 Cl7        -8.6261    3.4612   53.4756 Cl      1  ZINC000771225867    0.0400
      8 N8         -6.7584    2.1437   52.0683 N.2     1  ZINC000771225867   -0.5500
      9 C9         -6.2241    1.0240   51.6718 C.2     1  ZINC000771225867    0.3400
     10 N10        -5.1283    0.9281   50.8420 N.pl3   1  ZINC000771225867   -0.6700
     11 C11        -4.6283    2.1176   50.1484 C.3     1  ZINC000771225867    0.1700
     12 C12        -3.2461    2.4478   50.6500 C.ar    1  ZINC000771225867   -0.0800
     13 C13        -3.0837    3.0348   51.8911 C.ar    1  ZINC000771225867   -0.1300
     14 C14        -1.8168    3.3389   52.3542 C.ar    1  ZINC000771225867   -0.0800
     15 C15        -0.7100    3.0568   51.5775 C.ar    1  ZINC000771225867   -0.2000
     16 C16        -0.8703    2.4676   50.3315 C.ar    1  ZINC000771225867    0.1300
     17 O17         0.2171    2.1887   49.5655 O.3     1  ZINC000771225867   -0.2900
     18 C18         1.3350    1.5864   50.2209 C.3     1  ZINC000771225867    0.0400
     19 C19         2.1688    0.8422   49.2100 C.2     1  ZINC000771225867    0.5200
     20 N20         2.8600   -0.2535   49.5820 N.am    1  ZINC000771225867   -0.8500
     21 O21         2.2179    1.2292   48.0616 O.2     1  ZINC000771225867   -0.5200
     22 C22        -2.1419    2.1584   49.8715 C.ar    1  ZINC000771225867   -0.1200
     23 S23        -7.0658   -0.3094   52.3308 S.3     1  ZINC000771225867    0.2200
     24 H24       -10.5621   -0.9785   55.8402 H       1  ZINC000771225867    0.0600
     25 H25       -11.6766   -0.5639   54.5157 H       1  ZINC000771225867    0.0600
     26 H26       -11.0830   -2.2330   54.6899 H       1  ZINC000771225867    0.1000
     27 H27        -4.6880    0.0728   50.7170 H       1  ZINC000771225867    0.4200
     28 H28        -4.5891    1.9236   49.0764 H       1  ZINC000771225867    0.0900
     29 H29        -5.2952    2.9579   50.3413 H       1  ZINC000771225867    0.0900
     30 H30        -3.9479    3.2565   52.4997 H       1  ZINC000771225867    0.1300
     31 H31        -1.6925    3.7977   53.3240 H       1  ZINC000771225867    0.1300
     32 H32         0.2793    3.2949   51.9395 H       1  ZINC000771225867    0.1300
     33 H33         1.9405    2.3607   50.6918 H       1  ZINC000771225867    0.1000
     34 H34         0.9791    0.8909   50.9810 H       1  ZINC000771225867    0.1000
     35 H35         3.3957   -0.7331   48.9310 H       1  ZINC000771225867    0.4000
     36 H36         2.8215   -0.5623   50.5007 H       1  ZINC000771225867    0.4100
     37 H37        -2.2693    1.6998   48.9021 H       1  ZINC000771225867    0.1400
@<TRIPOS>BOND
     1     1     2    1
     2     1    24    1
     3     1    25    1
     4     1    26    1
     5     2     3    1
     6     3     4    2
     7     3     5    1
     8     5    23    1
     9     5     6    2
    10     6     7    1
    11     6     8    1
    12     8     9    2
    13     9    10    1
    14     9    23    1
    15    10    11    1
    16    10    27    1
    17    11    12    1
    18    11    28    1
    19    11    29    1
    20    12    22   ar
    21    12    13   ar
    22    13    14   ar
    23    13    30    1
    24    14    15   ar
    25    14    31    1
    26    15    16   ar
    27    15    32    1
    28    16    17    1
    29    16    22   ar
    30    17    18    1
    31    18    19    1
    32    18    33    1
    33    18    34    1
    34    19    20   am
    35    19    21    2
    36    20    35    1
    37    20    36    1
    38    22    37    1
@<TRIPOS>SUBSTRUCTURE
     1 ZINC000771225867        1 TEMP              0 ****  ****    0 ROOT


##########                                Name:    ZINC000558213406
##########                DOCK_Rotatable_Bonds:                   8
##########                         Heavy_Atoms:                  30
##########                    Molecular_Weight:               408.5
##########                DOCK_Rotatable_Bonds:                   8
##########                       Formal_Charge:          -0.0299987
##########                     HBond_Acceptors:                   7
##########                        HBond_Donors:                   2
##########                         Heavy_Atoms:                  30
##########                          Grid_Score:          -32.783928
##########                     Grid_vdw_energy:          -32.993931
##########                      Grid_es_energy:            0.210004
##########           Internal_energy_repulsive:            9.483144

@<TRIPOS>MOLECULE
ZINC000558213406
 58 61 1 0 0
SMALL
USER_CHARGES


@<TRIPOS>ATOM
      1 O1         -8.6170    0.6948   54.8546 O.2     1  ZINC000558213406   -0.5700
      2 C2         -9.2118   -0.0195   54.0708 C.2     1  ZINC000558213406    0.7100
      3 N3         -8.8880   -0.0009   52.7627 N.am    1  ZINC000558213406   -0.6800
      4 C4         -7.8697    0.8462   52.3050 C.ar    1  ZINC000558213406    0.1700
      5 C5         -6.6933    0.3082   51.8003 C.ar    1  ZINC000558213406   -0.1300
      6 C6         -5.6905    1.1432   51.3489 C.ar    1  ZINC000558213406   -0.1100
      7 C7         -5.8579    2.5196   51.4001 C.ar    1  ZINC000558213406    0.0600
      8 O8         -4.8700    3.3413   50.9559 O.3     1  ZINC000558213406   -0.2500
      9 C9         -3.7236    3.4111   51.6822 C.ar    1  ZINC000558213406    0.0700
     10 C10        -3.7615    3.7575   53.0292 C.ar    1  ZINC000558213406   -0.1500
     11 C11        -2.5664    3.8154   53.7280 C.ar    1  ZINC000558213406   -0.1300
     12 C12        -1.3851    3.5295   53.0697 C.ar    1  ZINC000558213406    0.0600
     13 N13        -1.3837    3.2047   51.7915 N.ar    1  ZINC000558213406   -0.4500
     14 C14        -2.4987    3.1323   51.0924 C.ar    1  ZINC000558213406    0.0800
     15 C15        -7.0334    3.0576   51.9038 C.ar    1  ZINC000558213406   -0.1000
     16 C16        -8.0390    2.2234   52.3506 C.ar    1  ZINC000558213406   -0.1100
     17 N17       -10.1911   -0.8342   54.5110 N.am    1  ZINC000558213406   -0.7300
     18 C18       -10.5432   -0.8545   55.9330 C.3     1  ZINC000558213406    0.1500
     19 H19        -9.6454   -0.8443   56.5512 H       1  ZINC000558213406    0.1100
     20 C20       -11.4670    0.3407   56.2869 C.3     1  ZINC000558213406   -0.1400
     21 C21       -12.2319   -0.2108   57.5159 C.3     1  ZINC000558213406    0.1000
     22 N22       -12.4480   -1.6382   57.2166 N.am    1  ZINC000558213406   -0.6200
     23 C23       -13.4245   -2.4100   57.7334 C.2     1  ZINC000558213406    0.5400
     24 O24       -13.5075   -3.5772   57.4147 O.2     1  ZINC000558213406   -0.5300
     25 C25       -14.4133   -1.8227   58.7074 C.3     1  ZINC000558213406   -0.1000
     26 C26       -15.7707   -1.6603   58.0205 C.3     1  ZINC000558213406   -0.1100
     27 C27       -16.7745   -1.0641   59.0093 C.3     1  ZINC000558213406   -0.1200
     28 C28       -16.9204   -1.9971   60.2130 C.3     1  ZINC000558213406   -0.1200
     29 C29       -15.5629   -2.1595   60.8998 C.3     1  ZINC000558213406   -0.1200
     30 C30       -14.5591   -2.7558   59.9110 C.3     1  ZINC000558213406   -0.1100
     31 C31       -11.4184   -2.0824   56.2612 C.3     1  ZINC000558213406    0.1000
     32 H32        -9.3597   -0.5737   52.1380 H       1  ZINC000558213406    0.4100
     33 H33        -6.5626   -0.7631   51.7611 H       1  ZINC000558213406    0.1300
     34 H34        -4.7754    0.7248   50.9563 H       1  ZINC000558213406    0.1400
     35 H35        -4.6994    3.9761   53.5179 H       1  ZINC000558213406    0.1400
     36 H36        -2.5579    4.0811   54.7748 H       1  ZINC000558213406    0.1400
     37 H37        -0.4505    3.5730   53.6093 H       1  ZINC000558213406    0.1600
     38 H38        -2.4578    2.8627   50.0474 H       1  ZINC000558213406    0.1700
     39 H39        -7.1632    4.1291   51.9433 H       1  ZINC000558213406    0.1400
     40 H40        -8.9541    2.6424   52.7424 H       1  ZINC000558213406    0.1500
     41 H41       -10.6628   -1.4070   53.8863 H       1  ZINC000558213406    0.4000
     42 H42       -10.8822    1.2210   56.5535 H       1  ZINC000558213406    0.0900
     43 H43       -12.1513    0.5615   55.4677 H       1  ZINC000558213406    0.0800
     44 H44       -11.6308   -0.0993   58.4183 H       1  ZINC000558213406    0.0700
     45 H45       -13.1871    0.3017   57.6296 H       1  ZINC000558213406    0.0800
     46 H46       -14.0573   -0.8488   59.0436 H       1  ZINC000558213406    0.0900
     47 H47       -15.6668   -0.9955   57.1628 H       1  ZINC000558213406    0.0600
     48 H48       -16.1265   -2.6342   57.6842 H       1  ZINC000558213406    0.0700
     49 H49       -16.4186   -0.0901   59.3454 H       1  ZINC000558213406    0.0600
     50 H50       -17.7416   -0.9484   58.5199 H       1  ZINC000558213406    0.0700
     51 H51       -17.6355   -1.5723   60.9173 H       1  ZINC000558213406    0.0600
     52 H52       -17.2763   -2.9710   59.8767 H       1  ZINC000558213406    0.0600
     53 H53       -15.2071   -1.1856   61.2361 H       1  ZINC000558213406    0.0600
     54 H54       -15.6669   -2.8242   61.7574 H       1  ZINC000558213406    0.0700
     55 H55       -14.9149   -3.7297   59.5749 H       1  ZINC000558213406    0.0800
     56 H56       -13.5920   -2.8714   60.4004 H       1  ZINC000558213406    0.0600
     57 H57       -11.8915   -2.4515   55.3513 H       1  ZINC000558213406    0.0800
     58 H58       -10.8102   -2.8678   56.7102 H       1  ZINC000558213406    0.0800
@<TRIPOS>BOND
     1     1     2    2
     2     2     3   am
     3     2    17   am
     4     3     4    1
     5     3    32    1
     6     4    16   ar
     7     4     5   ar
     8     5     6   ar
     9     5    33    1
    10     6     7   ar
    11     6    34    1
    12     7     8    1
    13     7    15   ar
    14     8     9    1
    15     9    14   ar
    16     9    10   ar
    17    10    11   ar
    18    10    35    1
    19    11    12   ar
    20    11    36    1
    21    12    13   ar
    22    12    37    1
    23    13    14   ar
    24    14    38    1
    25    15    16   ar
    26    15    39    1
    27    16    40    1
    28    17    18    1
    29    17    41    1
    30    18    19    1
    31    18    31    1
    32    18    20    1
    33    20    21    1
    34    20    42    1
    35    20    43    1
    36    21    22    1
    37    21    44    1
    38    21    45    1
    39    22    23   am
    40    22    31    1
    41    23    24    2
    42    23    25    1
    43    25    30    1
    44    25    26    1
    45    25    46    1
    46    26    27    1
    47    26    47    1
    48    26    48    1
    49    27    28    1
    50    27    49    1
    51    27    50    1
    52    28    29    1
    53    28    51    1
    54    28    52    1
    55    29    30    1
    56    29    53    1
    57    29    54    1
    58    30    55    1
    59    30    56    1
    60    31    57    1
    61    31    58    1
@<TRIPOS>SUBSTRUCTURE
     1 ZINC000558213406        1 TEMP              0 ****  ****    0 ROOT


##########                                Name:    ZINC000504243286
##########                DOCK_Rotatable_Bonds:                   7
##########                         Heavy_Atoms:                  29
##########                    Molecular_Weight:             408.337
##########                DOCK_Rotatable_Bonds:                   7
##########                       Formal_Charge:           0.0299994
##########                     HBond_Acceptors:                  11
##########                        HBond_Donors:                   3
##########                         Heavy_Atoms:                  29
##########                          Grid_Score:          -32.774002
##########                     Grid_vdw_energy:          -30.312271
##########                      Grid_es_energy:           -2.461732
##########           Internal_energy_repulsive:           11.263169

@<TRIPOS>MOLECULE
ZINC000504243286
 44 46 1 0 0
SMALL
USER_CHARGES


@<TRIPOS>ATOM
      1 O1         -5.9643    2.9469   50.6277 O.2     1  ZINC000504243286   -0.5200
      2 C2         -5.2728    2.7641   51.6073 C.2     1  ZINC000504243286    0.5200
      3 C3         -3.8772    3.3302   51.6608 C.3     1  ZINC000504243286   -0.1600
      4 C4         -2.9302    2.4279   50.8670 C.3     1  ZINC000504243286    0.1300
      5 N5         -1.5431    2.7856   51.1740 N.pl3   1  ZINC000504243286   -0.7200
      6 C6         -0.5240    2.4669   50.2736 C.ar    1  ZINC000504243286    0.3100
      7 C7         -0.7869    1.6400   49.1891 C.ar    1  ZINC000504243286   -0.1900
      8 C8          0.2230    1.3271   48.3003 C.ar    1  ZINC000504243286    0.0200
      9 C9          1.4946    1.8363   48.4892 C.ar    1  ZINC000504243286   -0.2400
     10 C10         2.5938    1.4933   47.5171 C.3     1  ZINC000504243286    0.5200
     11 F11         3.8042    1.3674   48.2072 F       1  ZINC000504243286   -0.1700
     12 F12         2.2925    0.2849   46.8798 F       1  ZINC000504243286   -0.1700
     13 F13         2.7052    2.5092   46.5617 F       1  ZINC000504243286   -0.1700
     14 C14         1.7598    2.6601   49.5681 C.ar    1  ZINC000504243286    0.0400
     15 C15         0.7535    2.9810   50.4575 C.ar    1  ZINC000504243286   -0.1200
     16 N16         1.0382    3.8626   51.6117 N.pl3   1  ZINC000504243286    0.0400
     17 O17         0.2071    4.6742   51.9778 O.2     1  ZINC000504243286   -0.1700
     18 O18         2.1037    3.7766   52.1955 O.2     1  ZINC000504243286   -0.1400
     19 N19        -5.7547    2.0596   52.6503 N.am    1  ZINC000504243286   -0.6700
     20 C20        -7.0520    1.5335   52.6007 C.ar    1  ZINC000504243286    0.1200
     21 C21        -7.2469    0.1589   52.5796 C.ar    1  ZINC000504243286   -0.1000
     22 C22        -8.5228   -0.3621   52.5312 C.ar    1  ZINC000504243286   -0.1200
     23 C23        -9.6268    0.4875   52.5024 C.ar    1  ZINC000504243286    0.1300
     24 N24       -10.9940    0.2048   52.4521 N.am    1  ZINC000504243286   -0.6600
     25 C25       -11.7434    1.3200   52.4376 C.2     1  ZINC000504243286    0.5300
     26 O26       -12.9545    1.3735   52.3965 O.2     1  ZINC000504243286   -0.5000
     27 C27       -10.7926    2.4971   52.4828 C.3     1  ZINC000504243286   -0.1200
     28 C28        -9.4218    1.8618   52.5237 C.ar    1  ZINC000504243286   -0.1200
     29 C29        -8.1506    2.3850   52.5779 C.ar    1  ZINC000504243286   -0.0600
     30 H30        -3.8740    4.3305   51.2279 H       1  ZINC000504243286    0.1100
     31 H31        -3.5456    3.3819   52.6978 H       1  ZINC000504243286    0.1100
     32 H32        -3.1059    1.3874   51.1397 H       1  ZINC000504243286    0.0800
     33 H33        -3.1118    2.5597   49.8003 H       1  ZINC000504243286    0.0900
     34 H34        -1.3324    3.2437   52.0026 H       1  ZINC000504243286    0.4100
     35 H35        -1.7798    1.2417   49.0411 H       1  ZINC000504243286    0.1600
     36 H36         0.0194    0.6839   47.4569 H       1  ZINC000504243286    0.1600
     37 H37         2.7541    3.0561   49.7128 H       1  ZINC000504243286    0.1600
     38 H38        -5.2032    1.9169   53.4355 H       1  ZINC000504243286    0.4200
     39 H39        -6.3955   -0.5052   52.6010 H       1  ZINC000504243286    0.1400
     40 H40        -8.6668   -1.4323   52.5151 H       1  ZINC000504243286    0.1300
     41 H41       -11.3602   -0.6931   52.4301 H       1  ZINC000504243286    0.4100
     42 H42       -10.9024    3.1110   51.5888 H       1  ZINC000504243286    0.1300
     43 H43       -10.9645    3.0925   53.3795 H       1  ZINC000504243286    0.1300
     44 H44        -8.0063    3.4552   52.5990 H       1  ZINC000504243286    0.1500
@<TRIPOS>BOND
     1     1     2    2
     2     2     3    1
     3     2    19   am
     4     3     4    1
     5     3    30    1
     6     3    31    1
     7     4     5    1
     8     4    32    1
     9     4    33    1
    10     5     6    1
    11     5    34    1
    12     6    15   ar
    13     6     7   ar
    14     7     8   ar
    15     7    35    1
    16     8     9   ar
    17     8    36    1
    18     9    10    1
    19     9    14   ar
    20    10    11    1
    21    10    12    1
    22    10    13    1
    23    14    15   ar
    24    14    37    1
    25    15    16    1
    26    16    17    2
    27    16    18    2
    28    19    20    1
    29    19    38    1
    30    20    29   ar
    31    20    21   ar
    32    21    22   ar
    33    21    39    1
    34    22    23   ar
    35    22    40    1
    36    23    28   ar
    37    23    24    1
    38    24    25   am
    39    24    41    1
    40    25    26    2
    41    25    27    1
    42    27    28    1
    43    27    42    1
    44    27    43    1
    45    28    29   ar
    46    29    44    1
@<TRIPOS>SUBSTRUCTURE
     1 ZINC000504243286        1 TEMP              0 ****  ****    0 ROOT


##########                                Name:    ZINC001362587626
##########                DOCK_Rotatable_Bonds:                   9
##########                         Heavy_Atoms:                  25
##########                    Molecular_Weight:             346.346
##########                DOCK_Rotatable_Bonds:                   9
##########                       Formal_Charge:        -4.02331e-07
##########                     HBond_Acceptors:                  10
##########                        HBond_Donors:                   2
##########                         Heavy_Atoms:                  25
##########                          Grid_Score:          -32.770813
##########                     Grid_vdw_energy:          -30.509357
##########                      Grid_es_energy:           -2.261455
##########           Internal_energy_repulsive:            7.004025

@<TRIPOS>MOLECULE
ZINC001362587626
 43 45 1 0 0
SMALL
USER_CHARGES


@<TRIPOS>ATOM
      1 C1         -3.3546    4.5904   55.3444 C.3     1  ZINC001362587626   -0.1600
      2 C2         -4.0591    4.5084   53.9888 C.3     1  ZINC001362587626    0.1300
      3 H3         -4.5945    5.4391   53.8007 H       1  ZINC001362587626    0.1200
      4 N4         -5.0082    3.3924   53.9984 N.am    1  ZINC001362587626   -0.7100
      5 C5         -5.9710    3.3186   53.0581 C.2     1  ZINC001362587626    0.5100
      6 O6         -6.0507    4.1750   52.2032 O.2     1  ZINC001362587626   -0.5000
      7 C7         -6.9485    2.1715   53.0691 C.3     1  ZINC001362587626    0.1000
      8 N8         -6.5357    1.1689   52.0838 N.pl3   1  ZINC001362587626   -0.3100
      9 C9         -5.8842    1.4034   50.9296 C.2     1  ZINC001362587626    0.1600
     10 N10        -5.7109    0.2395   50.3522 N.2     1  ZINC001362587626   -0.3000
     11 N11        -6.2289   -0.6627   51.1122 N.2     1  ZINC001362587626   -0.0700
     12 N12        -6.7233   -0.1051   52.1621 N.2     1  ZINC001362587626   -0.0700
     13 C13        -3.0367    4.2890   52.9038 C.2     1  ZINC001362587626    0.5100
     14 O14        -2.7302    5.2015   52.1658 O.2     1  ZINC001362587626   -0.5200
     15 N15        -2.4627    3.0788   52.7534 N.am    1  ZINC001362587626   -0.6600
     16 C16        -1.5121    2.8749   51.7447 C.ar    1  ZINC001362587626    0.1000
     17 C17        -1.8846    2.2712   50.5510 C.ar    1  ZINC001362587626   -0.1000
     18 C18        -0.9473    2.0710   49.5570 C.ar    1  ZINC001362587626   -0.1900
     19 C19         0.3664    2.4722   49.7509 C.ar    1  ZINC001362587626    0.1200
     20 O20         1.2889    2.2743   48.7718 O.3     1  ZINC001362587626   -0.2800
     21 C21         1.6581    0.9225   48.4920 C.3     1  ZINC001362587626    0.0100
     22 C22         2.9553    0.7890   47.6721 C.3     1  ZINC001362587626    0.0200
     23 O23         3.6208    0.7145   48.9490 O.3     1  ZINC001362587626   -0.3700
     24 C24         2.4414    0.2430   49.6311 C.3     1  ZINC001362587626    0.0400
     25 C25         0.7392    3.0758   50.9430 C.ar    1  ZINC001362587626   -0.1300
     26 C26        -0.1983    3.2815   51.9358 C.ar    1  ZINC001362587626   -0.0800
     27 H27        -2.8193    3.6597   55.5326 H       1  ZINC001362587626    0.0700
     28 H28        -2.6485    5.4207   55.3373 H       1  ZINC001362587626    0.0800
     29 H29        -4.0942    4.7492   56.1293 H       1  ZINC001362587626    0.0800
     30 H30        -4.9437    2.7068   54.6814 H       1  ZINC001362587626    0.4100
     31 H31        -6.9676    1.7199   54.0609 H       1  ZINC001362587626    0.1500
     32 H32        -7.9433    2.5395   52.8181 H       1  ZINC001362587626    0.1400
     33 H33        -5.5665    2.3641   50.5520 H       1  ZINC001362587626    0.2400
     34 H34        -2.7077    2.3491   53.3436 H       1  ZINC001362587626    0.4100
     35 H35        -2.9071    1.9581   50.4003 H       1  ZINC001362587626    0.1300
     36 H36        -1.2369    1.6014   48.6285 H       1  ZINC001362587626    0.1400
     37 H37         0.8302    0.3253   48.1097 H       1  ZINC001362587626    0.0900
     38 H38         3.0159   -0.1299   47.0890 H       1  ZINC001362587626    0.1000
     39 H39         3.2061    1.6793   47.0955 H       1  ZINC001362587626    0.1000
     40 H40         2.2845    0.7002   50.6080 H       1  ZINC001362587626    0.1000
     41 H41         2.3450   -0.8426   49.6461 H       1  ZINC001362587626    0.1000
     42 H42         1.7621    3.3880   51.0933 H       1  ZINC001362587626    0.1400
     43 H43         0.0920    3.7518   52.8637 H       1  ZINC001362587626    0.1500
@<TRIPOS>BOND
     1     1     2    1
     2     1    27    1
     3     1    28    1
     4     1    29    1
     5     2     3    1
     6     2     4    1
     7     2    13    1
     8     4     5   am
     9     4    30    1
    10     5     6    2
    11     5     7    1
    12     7     8    1
    13     7    31    1
    14     7    32    1
    15     8    12    1
    16     8     9    1
    17     9    10    2
    18     9    33    1
    19    10    11    1
    20    11    12    2
    21    13    14    2
    22    13    15   am
    23    15    16    1
    24    15    34    1
    25    16    26   ar
    26    16    17   ar
    27    17    18   ar
    28    17    35    1
    29    18    19   ar
    30    18    36    1
    31    19    20    1
    32    19    25   ar
    33    20    21    1
    34    21    24    1
    35    21    22    1
    36    21    37    1
    37    22    23    1
    38    22    38    1
    39    22    39    1
    40    23    24    1
    41    24    40    1
    42    24    41    1
    43    25    26   ar
    44    25    42    1
    45    26    43    1
@<TRIPOS>SUBSTRUCTURE
     1 ZINC001362587626        1 TEMP              0 ****  ****    0 ROOT


##########                                Name:    ZINC000992031068
##########                DOCK_Rotatable_Bonds:                   8
##########                         Heavy_Atoms:                  25
##########                    Molecular_Weight:             342.401
##########                DOCK_Rotatable_Bonds:                   8
##########                       Formal_Charge:           0.0199999
##########                     HBond_Acceptors:                   8
##########                        HBond_Donors:                   2
##########                         Heavy_Atoms:                  25
##########                          Grid_Score:          -32.769352
##########                     Grid_vdw_energy:          -31.907866
##########                      Grid_es_energy:           -0.861487
##########           Internal_energy_repulsive:            6.336371

@<TRIPOS>MOLECULE
ZINC000992031068
 47 49 1 0 0
SMALL
USER_CHARGES


@<TRIPOS>ATOM
      1 C1         -1.2728    4.0001   53.1067 C.3     1  ZINC000992031068   -0.1100
      2 C2         -2.1803    3.2703   52.1501 C.ar    1  ZINC000992031068    0.1800
      3 C3         -3.4715    2.9301   52.5275 C.ar    1  ZINC000992031068   -0.1700
      4 C4         -4.2731    2.2553   51.6061 C.ar    1  ZINC000992031068    0.1300
      5 C5         -5.6626    1.8674   51.9562 C.2     1  ZINC000992031068    0.5700
      6 O6         -6.2346    1.0108   51.3123 O.2     1  ZINC000992031068   -0.5200
      7 N7         -6.2895    2.4656   52.9884 N.am    1  ZINC000992031068   -0.7100
      8 C8         -7.6601    2.0816   53.3351 C.3     1  ZINC000992031068    0.1300
      9 C9         -8.0099    2.6331   54.7186 C.3     1  ZINC000992031068   -0.1200
     10 C10        -9.2496    1.9762   55.3483 C.3     1  ZINC000992031068   -0.1400
     11 C11        -8.4899    2.0072   56.6850 C.3     1  ZINC000992031068    0.1200
     12 N12        -8.6759    0.7998   57.4938 N.am    1  ZINC000992031068   -0.7200
     13 C13        -7.8463    0.5452   58.5250 C.2     1  ZINC000992031068    0.5200
     14 O14        -6.9469    1.3161   58.7843 O.2     1  ZINC000992031068   -0.5200
     15 C15        -8.0366   -0.6976   59.3559 C.3     1  ZINC000992031068   -0.0800
     16 C16        -8.9447   -0.3904   60.5186 C.2     1  ZINC000992031068    0.1000
     17 C17        -8.5565    0.0328   61.7438 C.2     1  ZINC000992031068   -0.2500
     18 C18        -9.7047    0.2001   62.5251 C.2     1  ZINC000992031068    0.0500
     19 N19       -10.7447   -0.1114   61.7949 N.2     1  ZINC000992031068   -0.2900
     20 N20       -10.2911   -0.4822   60.5225 N.pl3   1  ZINC000992031068   -0.3700
     21 C21       -11.1295   -0.9041   59.3977 C.3     1  ZINC000992031068    0.1000
     22 C22        -7.1934    2.0011   55.8582 C.3     1  ZINC000992031068   -0.1400
     23 N23        -3.7715    1.9657   50.4079 N.ar    1  ZINC000992031068   -0.5000
     24 C24        -2.5405    2.3082   50.0935 C.ar    1  ZINC000992031068    0.3000
     25 N25        -1.7582    2.9508   50.9387 N.ar    1  ZINC000992031068   -0.5100
     26 H26        -1.4000    5.0752   52.9796 H       1  ZINC000992031068    0.0900
     27 H27        -1.5253    3.7229   54.1302 H       1  ZINC000992031068    0.0900
     28 H28        -0.2367    3.7302   52.9021 H       1  ZINC000992031068    0.0900
     29 H29        -3.8461    3.1808   53.5089 H       1  ZINC000992031068    0.1600
     30 H30        -5.8332    3.1505   53.5019 H       1  ZINC000992031068    0.4100
     31 H31        -8.3497    2.4899   52.5962 H       1  ZINC000992031068    0.0700
     32 H32        -7.7412    0.9946   53.3460 H       1  ZINC000992031068    0.0800
     33 H33        -8.0293    3.7225   54.7475 H       1  ZINC000992031068    0.1000
     34 H34       -10.1350    2.6117   55.3344 H       1  ZINC000992031068    0.0800
     35 H35        -9.4445    0.9689   54.9800 H       1  ZINC000992031068    0.0900
     36 H36        -8.6430    2.9248   57.2530 H       1  ZINC000992031068    0.1200
     37 H37        -9.3961    0.1838   57.2872 H       1  ZINC000992031068    0.4000
     38 H38        -8.4836   -1.4799   58.7425 H       1  ZINC000992031068    0.1200
     39 H39        -7.0701   -1.0364   59.7292 H       1  ZINC000992031068    0.1100
     40 H40        -7.5399    0.2096   62.0625 H       1  ZINC000992031068    0.1500
     41 H41        -9.7284    0.5290   63.5535 H       1  ZINC000992031068    0.1800
     42 H42       -11.4119   -0.0320   58.8079 H       1  ZINC000992031068    0.0800
     43 H43       -10.5731   -1.6016   58.7714 H       1  ZINC000992031068    0.0800
     44 H44       -12.0271   -1.3926   59.7768 H       1  ZINC000992031068    0.0900
     45 H45        -6.8260    1.0006   55.6294 H       1  ZINC000992031068    0.0900
     46 H46        -6.4188    2.6567   56.2560 H       1  ZINC000992031068    0.0800
     47 H47        -2.1613    2.0594   49.1134 H       1  ZINC000992031068    0.2100
@<TRIPOS>BOND
     1     1     2    1
     2     1    26    1
     3     1    27    1
     4     1    28    1
     5     2    25   ar
     6     2     3   ar
     7     3     4   ar
     8     3    29    1
     9     4     5    1
    10     4    23   ar
    11     5     6    2
    12     5     7   am
    13     7     8    1
    14     7    30    1
    15     8     9    1
    16     8    31    1
    17     8    32    1
    18     9    22    1
    19     9    10    1
    20     9    33    1
    21    10    11    1
    22    10    34    1
    23    10    35    1
    24    11    12    1
    25    11    22    1
    26    11    36    1
    27    12    13   am
    28    12    37    1
    29    13    14    2
    30    13    15    1
    31    15    16    1
    32    15    38    1
    33    15    39    1
    34    16    20    1
    35    16    17    2
    36    17    18    1
    37    17    40    1
    38    18    19    2
    39    18    41    1
    40    19    20    1
    41    20    21    1
    42    21    42    1
    43    21    43    1
    44    21    44    1
    45    22    45    1
    46    22    46    1
    47    23    24   ar
    48    24    25   ar
    49    24    47    1
@<TRIPOS>SUBSTRUCTURE
     1 ZINC000992031068        1 TEMP              0 ****  ****    0 ROOT


##########                                Name:    ZINC000540473851
##########                DOCK_Rotatable_Bonds:                   5
##########                         Heavy_Atoms:                  29
##########                    Molecular_Weight:             411.503
##########                DOCK_Rotatable_Bonds:                   5
##########                       Formal_Charge:           0.0200001
##########                     HBond_Acceptors:                   8
##########                        HBond_Donors:                   0
##########                         Heavy_Atoms:                  29
##########                          Grid_Score:          -32.767006
##########                     Grid_vdw_energy:          -32.256851
##########                      Grid_es_energy:           -0.510154
##########           Internal_energy_repulsive:           34.443527

@<TRIPOS>MOLECULE
ZINC000540473851
 51 54 1 0 0
SMALL
USER_CHARGES


@<TRIPOS>ATOM
      1 C1         -9.6858    0.5481   61.5340 C.3     1  ZINC000540473851   -0.0800
      2 C2        -10.3164   -0.2778   60.4425 C.2     1  ZINC000540473851    0.1500
      3 C3         -9.7326   -0.4659   59.2180 C.2     1  ZINC000540473851   -0.3100
      4 C4         -8.4440    0.0841   58.7796 C.2     1  ZINC000540473851    0.6000
      5 O5         -7.4102   -0.4964   59.0531 O.2     1  ZINC000540473851   -0.5100
      6 N6         -8.4062    1.2319   58.0743 N.am    1  ZINC000540473851   -0.6100
      7 C7         -7.1266    1.7971   57.6202 C.3     1  ZINC000540473851    0.1000
      8 C8         -7.2289    2.0894   56.1194 C.3     1  ZINC000540473851    0.0400
      9 N9         -8.4048    2.9329   55.8671 N.3     1  ZINC000540473851   -0.5300
     10 C10        -8.4431    3.3778   54.4676 C.3     1  ZINC000540473851    0.1200
     11 H11        -7.9340    4.3375   54.3774 H       1  ZINC000540473851    0.0500
     12 C12        -9.8984    3.5285   54.0200 C.3     1  ZINC000540473851   -0.1400
     13 C13        -7.7529    2.3592   53.5976 C.ar    1  ZINC000540473851   -0.0500
     14 C14        -8.3808    1.1637   53.3026 C.ar    1  ZINC000540473851   -0.1000
     15 C15        -7.7488    0.2281   52.5045 C.ar    1  ZINC000540473851   -0.0900
     16 C16        -6.4884    0.4874   52.0008 C.ar    1  ZINC000540473851   -0.1500
     17 C17        -5.8586    1.6850   52.2953 C.ar    1  ZINC000540473851    0.1000
     18 F18        -4.6264    1.9395   51.8033 F       1  ZINC000540473851   -0.1400
     19 C19        -6.4946    2.6232   53.0901 C.ar    1  ZINC000540473851   -0.1500
     20 C20        -9.6468    2.2387   56.2329 C.3     1  ZINC000540473851    0.0400
     21 C21        -9.6441    1.9493   57.7330 C.3     1  ZINC000540473851    0.1200
     22 S22       -10.8055   -1.4866   58.2632 S.3     1  ZINC000540473851    0.2800
     23 C23       -11.9102   -1.5637   59.5653 C.2     1  ZINC000540473851    0.0800
     24 C24       -13.1898   -2.3060   59.5427 C.ar    1  ZINC000540473851    0.3800
     25 N25       -13.5234   -2.9890   58.4551 N.ar    1  ZINC000540473851   -0.5100
     26 C26       -14.6589   -3.6625   58.4024 C.ar    1  ZINC000540473851    0.1600
     27 C27       -15.5054   -3.6494   59.5017 C.ar    1  ZINC000540473851   -0.2100
     28 C28       -15.1260   -2.9252   60.6228 C.ar    1  ZINC000540473851    0.1500
     29 N29       -13.9742   -2.2776   60.6125 N.ar    1  ZINC000540473851   -0.4700
     30 N30       -11.4650   -0.8824   60.5823 N.2     1  ZINC000540473851   -0.4300
     31 H31        -9.0513   -0.0884   62.1509 H       1  ZINC000540473851    0.0900
     32 H32        -9.0829    1.3394   61.0886 H       1  ZINC000540473851    0.0800
     33 H33       -10.4670    0.9907   62.1521 H       1  ZINC000540473851    0.0800
     34 H34        -6.9225    2.7217   58.1602 H       1  ZINC000540473851    0.0900
     35 H35        -6.3253    1.0803   57.7998 H       1  ZINC000540473851    0.0900
     36 H36        -6.3302    2.6100   55.7881 H       1  ZINC000540473851    0.1000
     37 H37        -7.3293    1.1521   55.5723 H       1  ZINC000540473851    0.0400
     38 H38       -10.4075    2.5690   54.1103 H       1  ZINC000540473851    0.0700
     39 H39       -10.3976    4.2653   54.6494 H       1  ZINC000540473851    0.0600
     40 H40        -9.9269    3.8587   52.9816 H       1  ZINC000540473851    0.0600
     41 H41        -9.3657    0.9600   53.6962 H       1  ZINC000540473851    0.1400
     42 H42        -8.2402   -0.7059   52.2749 H       1  ZINC000540473851    0.1300
     43 H43        -5.9947   -0.2438   51.3779 H       1  ZINC000540473851    0.1300
     44 H44        -6.0045    3.5577   53.3202 H       1  ZINC000540473851    0.1300
     45 H45       -10.5017    2.8674   55.9840 H       1  ZINC000540473851    0.1000
     46 H46        -9.7136    1.2993   55.6842 H       1  ZINC000540473851    0.0400
     47 H47       -10.5074    1.3352   57.9891 H       1  ZINC000540473851    0.1000
     48 H48        -9.6811    2.8873   58.2870 H       1  ZINC000540473851    0.0800
     49 H49       -14.9253   -4.2162   57.5142 H       1  ZINC000540473851    0.1800
     50 H50       -16.4397   -4.1910   59.4851 H       1  ZINC000540473851    0.1600
     51 H51       -15.7623   -2.8947   61.4949 H       1  ZINC000540473851    0.1800
@<TRIPOS>BOND
     1     1     2    1
     2     1    31    1
     3     1    32    1
     4     1    33    1
     5     2    30    1
     6     2     3    2
     7     3     4    1
     8     3    22    1
     9     4     5    2
    10     4     6   am
    11     6    21    1
    12     6     7    1
    13     7     8    1
    14     7    34    1
    15     7    35    1
    16     8     9    1
    17     8    36    1
    18     8    37    1
    19     9    10    1
    20     9    20    1
    21    10    11    1
    22    10    12    1
    23    10    13    1
    24    12    38    1
    25    12    39    1
    26    12    40    1
    27    13    19   ar
    28    13    14   ar
    29    14    15   ar
    30    14    41    1
    31    15    16   ar
    32    15    42    1
    33    16    17   ar
    34    16    43    1
    35    17    18    1
    36    17    19   ar
    37    19    44    1
    38    20    21    1
    39    20    45    1
    40    20    46    1
    41    21    47    1
    42    21    48    1
    43    22    23    1
    44    23    24    1
    45    23    30    2
    46    24    29   ar
    47    24    25   ar
    48    25    26   ar
    49    26    27   ar
    50    26    49    1
    51    27    28   ar
    52    27    50    1
    53    28    29   ar
    54    28    51    1
@<TRIPOS>SUBSTRUCTURE
     1 ZINC000540473851        1 TEMP              0 ****  ****    0 ROOT


##########                                Name:    ZINC000744839011
##########                DOCK_Rotatable_Bonds:                  10
##########                         Heavy_Atoms:                  24
##########                    Molecular_Weight:              378.83
##########                DOCK_Rotatable_Bonds:                  10
##########                       Formal_Charge:           0.0300002
##########                     HBond_Acceptors:                   9
##########                        HBond_Donors:                   0
##########                         Heavy_Atoms:                  24
##########                          Grid_Score:          -32.762138
##########                     Grid_vdw_energy:          -32.444435
##########                      Grid_es_energy:           -0.317705
##########           Internal_energy_repulsive:           10.746010

@<TRIPOS>MOLECULE
ZINC000744839011
 43 43 1 0 0
SMALL
USER_CHARGES


@<TRIPOS>ATOM
      1 C1          3.1013   -0.1697   47.1483 C.3     1  ZINC000744839011    0.0400
      2 O2          1.8866    0.0894   47.9004 O.3     1  ZINC000744839011   -0.3600
      3 C3          2.0069    0.8270   49.0216 C.2     1  ZINC000744839011    0.5100
      4 O4          3.0892    0.9381   49.5626 O.2     1  ZINC000744839011   -0.5000
      5 C5          0.8249    1.4993   49.5922 C.ar    1  ZINC000744839011   -0.1600
      6 C6         -0.4211    1.3719   48.9723 C.ar    1  ZINC000744839011   -0.0100
      7 C7         -1.5228    2.0009   49.5083 C.ar    1  ZINC000744839011   -0.2100
      8 C8         -1.3975    2.7617   50.6642 C.ar    1  ZINC000744839011    0.1800
      9 O9         -2.4859    3.3798   51.1890 O.3     1  ZINC000744839011   -0.2900
     10 C10        -3.5342    2.5418   51.6795 C.3     1  ZINC000744839011    0.0500
     11 C11        -4.8554    2.9373   51.0170 C.3     1  ZINC000744839011    0.0600
     12 O12        -5.9607    2.3468   51.7504 O.3     1  ZINC000744839011   -0.3400
     13 C13        -6.2106    1.0460   51.5329 C.2     1  ZINC000744839011    0.5000
     14 O14        -5.7002    0.4815   50.5945 O.2     1  ZINC000744839011   -0.4900
     15 C15        -7.1278    0.2898   52.4591 C.3     1  ZINC000744839011   -0.6400
     16 S16        -8.2145    1.4588   53.3213 S.o2    1  ZINC000744839011    2.4400
     17 O17        -7.4488    2.1554   54.2947 O.2     1  ZINC000744839011   -0.9100
     18 O18        -8.9430    2.1993   52.3516 O.2     1  ZINC000744839011   -0.9100
     19 C19        -9.3607    0.3434   54.1773 C.3     1  ZINC000744839011   -0.5700
     20 C20       -10.3090    1.1625   55.0554 C.3     1  ZINC000744839011   -0.1500
     21 C21       -10.1722   -0.4435   53.1463 C.3     1  ZINC000744839011   -0.1500
     22 C22        -0.1593    2.8911   51.2854 C.ar    1  ZINC000744839011   -0.0800
     23 Cl23       -0.0090    3.8425   52.7297 Cl      1  ZINC000744839011   -0.0400
     24 C24         0.9466    2.2612   50.7583 C.ar    1  ZINC000744839011   -0.0100
     25 H25         3.5409    0.7760   46.8310 H       1  ZINC000744839011    0.0700
     26 H26         3.8107   -0.7071   47.7777 H       1  ZINC000744839011    0.0700
     27 H27         2.8642   -0.7724   46.2716 H       1  ZINC000744839011    0.1100
     28 H28        -0.5198    0.7812   48.0735 H       1  ZINC000744839011    0.1500
     29 H29        -2.4858    1.9030   49.0292 H       1  ZINC000744839011    0.1500
     30 H30        -3.3075    1.5016   51.4454 H       1  ZINC000744839011    0.0900
     31 H31        -3.6194    2.6609   52.7596 H       1  ZINC000744839011    0.1000
     32 H32        -4.9541    4.0229   51.0229 H       1  ZINC000744839011    0.1100
     33 H33        -4.8682    2.5770   49.9883 H       1  ZINC000744839011    0.0900
     34 H34        -7.7320   -0.4094   51.8811 H       1  ZINC000744839011    0.1700
     35 H35        -6.5340   -0.2604   53.1890 H       1  ZINC000744839011    0.1700
     36 H36        -8.7957   -0.3496   54.8009 H       1  ZINC000744839011    0.1400
     37 H37       -10.9977    0.4924   55.5697 H       1  ZINC000744839011    0.0900
     38 H38        -9.7309    1.7232   55.7899 H       1  ZINC000744839011    0.0700
     39 H39       -10.8740    1.8555   54.4318 H       1  ZINC000744839011    0.0800
     40 H40        -9.4966   -1.0270   52.5208 H       1  ZINC000744839011    0.0800
     41 H41       -10.8610   -1.1136   53.6607 H       1  ZINC000744839011    0.0900
     42 H42       -10.7371    0.2494   52.5228 H       1  ZINC000744839011    0.0800
     43 H43         1.9076    2.3620   51.2407 H       1  ZINC000744839011    0.1600
@<TRIPOS>BOND
     1     1     2    1
     2     1    25    1
     3     1    26    1
     4     1    27    1
     5     2     3    1
     6     3     4    2
     7     3     5    1
     8     5    24   ar
     9     5     6   ar
    10     6     7   ar
    11     6    28    1
    12     7     8   ar
    13     7    29    1
    14     8     9    1
    15     8    22   ar
    16     9    10    1
    17    10    11    1
    18    10    30    1
    19    10    31    1
    20    11    12    1
    21    11    32    1
    22    11    33    1
    23    12    13    1
    24    13    14    2
    25    13    15    1
    26    15    16    1
    27    15    34    1
    28    15    35    1
    29    16    17    2
    30    16    18    2
    31    16    19    1
    32    19    20    1
    33    19    21    1
    34    19    36    1
    35    20    37    1
    36    20    38    1
    37    20    39    1
    38    21    40    1
    39    21    41    1
    40    21    42    1
    41    22    23    1
    42    22    24   ar
    43    24    43    1
@<TRIPOS>SUBSTRUCTURE
     1 ZINC000744839011        1 TEMP              0 ****  ****    0 ROOT


##########                                Name:    ZINC000505965769
##########                DOCK_Rotatable_Bonds:                   9
##########                         Heavy_Atoms:                  29
##########                    Molecular_Weight:              419.88
##########                DOCK_Rotatable_Bonds:                   9
##########                       Formal_Charge:               -0.02
##########                     HBond_Acceptors:                   7
##########                        HBond_Donors:                   1
##########                         Heavy_Atoms:                  29
##########                          Grid_Score:          -32.754524
##########                     Grid_vdw_energy:          -29.645449
##########                      Grid_es_energy:           -3.109074
##########           Internal_energy_repulsive:           10.139270

@<TRIPOS>MOLECULE
ZINC000505965769
 52 54 1 0 0
SMALL
USER_CHARGES


@<TRIPOS>ATOM
      1 C1         -5.2019    1.0008   50.4281 C.3     1  ZINC000505965769    0.0200
      2 O2         -5.4849    2.3405   50.8373 O.3     1  ZINC000505965769   -0.3100
      3 C3         -4.8837    2.7777   51.9722 C.ar    1  ZINC000505965769    0.1800
      4 C4         -3.4970    2.7489   52.0769 C.ar    1  ZINC000505965769   -0.2200
      5 C5         -2.8831    3.1874   53.2153 C.ar    1  ZINC000505965769   -0.0200
      6 C6         -3.6497    3.6687   54.2839 C.ar    1  ZINC000505965769   -0.2100
      7 C7         -2.9922    4.1409   55.5082 C.2     1  ZINC000505965769    0.3900
      8 O8         -2.5399    5.2654   55.5586 O.2     1  ZINC000505965769   -0.4400
      9 C9         -2.8793    3.2290   56.7026 C.3     1  ZINC000505965769   -0.1500
     10 C10        -1.6393    2.3451   56.5540 C.3     1  ZINC000505965769   -0.1300
     11 C11        -0.6242    2.7234   57.6016 C.2     1  ZINC000505965769    0.5200
     12 O12        -0.2155    3.8634   57.6662 O.2     1  ZINC000505965769   -0.5300
     13 N13        -0.1706    1.7947   58.4667 N.am    1  ZINC000505965769   -0.7200
     14 C14         0.8149    2.1629   59.4862 C.3     1  ZINC000505965769    0.1900
     15 H15         0.9658    3.2423   59.4728 H       1  ZINC000505965769    0.1100
     16 C16         0.3138    1.7427   60.8440 C.ar    1  ZINC000505965769   -0.1000
     17 C17         0.0644    0.4083   61.1055 C.ar    1  ZINC000505965769   -0.0900
     18 C18        -0.3950    0.0218   62.3503 C.ar    1  ZINC000505965769   -0.1500
     19 C19        -0.6050    0.9714   63.3358 C.ar    1  ZINC000505965769    0.1000
     20 F20        -1.0537    0.5946   64.5531 F       1  ZINC000505965769   -0.1400
     21 C21        -0.3544    2.3076   63.0728 C.ar    1  ZINC000505965769   -0.1500
     22 C22         0.1097    2.6912   61.8288 C.ar    1  ZINC000505965769   -0.0600
     23 C23         2.1409    1.4589   59.1916 C.3     1  ZINC000505965769    0.0800
     24 H24         2.0155    0.3776   59.2491 H       1  ZINC000505965769    0.0700
     25 C25         2.6664    1.8657   57.7918 C.3     1  ZINC000505965769   -0.1500
     26 C26         4.1893    1.6149   57.9643 C.3     1  ZINC000505965769   -0.1600
     27 C27         4.4166    1.9853   59.4456 C.3     1  ZINC000505965769    0.0500
     28 O28         3.1520    1.8934   60.1149 O.3     1  ZINC000505965769   -0.3700
     29 C29        -5.0476    3.6982   54.1795 C.ar    1  ZINC000505965769    0.0500
     30 Cl30       -6.0078    4.2927   55.4978 Cl      1  ZINC000505965769   -0.0200
     31 C31        -5.6558    3.2580   53.0239 C.ar    1  ZINC000505965769   -0.1600
     32 H32        -5.5138    0.3085   51.2101 H       1  ZINC000505965769    0.0600
     33 H33        -5.7447    0.7793   49.5091 H       1  ZINC000505965769    0.1100
     34 H34        -4.1315    0.8928   50.2529 H       1  ZINC000505965769    0.0600
     35 H35        -2.9033    2.3779   51.2546 H       1  ZINC000505965769    0.1400
     36 H36        -1.8060    3.1625   53.2917 H       1  ZINC000505965769    0.1500
     37 H37        -2.7923    3.8273   57.6096 H       1  ZINC000505965769    0.1100
     38 H38        -3.7678    2.6009   56.7655 H       1  ZINC000505965769    0.1100
     39 H39        -1.9209    1.2998   56.6815 H       1  ZINC000505965769    0.1000
     40 H40        -1.2087    2.4869   55.5627 H       1  ZINC000505965769    0.1000
     41 H41        -0.4967    0.8827   58.4142 H       1  ZINC000505965769    0.4000
     42 H42         0.2282   -0.3323   60.3368 H       1  ZINC000505965769    0.1300
     43 H43        -0.5905   -1.0206   62.5543 H       1  ZINC000505965769    0.1400
     44 H44        -0.5181    3.0492   63.8406 H       1  ZINC000505965769    0.1400
     45 H45         0.3055    3.7333   61.6235 H       1  ZINC000505965769    0.1400
     46 H46         2.2485    1.2262   57.0143 H       1  ZINC000505965769    0.0700
     47 H47         2.4621    2.9163   57.5857 H       1  ZINC000505965769    0.1000
     48 H48         4.4328    0.5677   57.7845 H       1  ZINC000505965769    0.0700
     49 H49         4.7665    2.2666   57.3085 H       1  ZINC000505965769    0.0800
     50 H50         5.1236    1.2889   59.8966 H       1  ZINC000505965769    0.0700
     51 H51         4.8011    3.0027   59.5175 H       1  ZINC000505965769    0.0700
     52 H52        -6.7322    3.2790   52.9383 H       1  ZINC000505965769    0.1500
@<TRIPOS>BOND
     1     1     2    1
     2     1    32    1
     3     1    33    1
     4     1    34    1
     5     2     3    1
     6     3    31   ar
     7     3     4   ar
     8     4     5   ar
     9     4    35    1
    10     5     6   ar
    11     5    36    1
    12     6     7    1
    13     6    29   ar
    14     7     8    2
    15     7     9    1
    16     9    10    1
    17     9    37    1
    18     9    38    1
    19    10    11    1
    20    10    39    1
    21    10    40    1
    22    11    12    2
    23    11    13   am
    24    13    14    1
    25    13    41    1
    26    14    15    1
    27    14    16    1
    28    14    23    1
    29    16    22   ar
    30    16    17   ar
    31    17    18   ar
    32    17    42    1
    33    18    19   ar
    34    18    43    1
    35    19    20    1
    36    19    21   ar
    37    21    22   ar
    38    21    44    1
    39    22    45    1
    40    23    24    1
    41    23    28    1
    42    23    25    1
    43    25    26    1
    44    25    46    1
    45    25    47    1
    46    26    27    1
    47    26    48    1
    48    26    49    1
    49    27    28    1
    50    27    50    1
    51    27    51    1
    52    29    30    1
    53    29    31   ar
    54    31    52    1
@<TRIPOS>SUBSTRUCTURE
     1 ZINC000505965769        1 TEMP              0 ****  ****    0 ROOT


##########                                Name:    ZINC000821177065
##########                DOCK_Rotatable_Bonds:                  10
##########                         Heavy_Atoms:                  25
##########                    Molecular_Weight:             341.413
##########                DOCK_Rotatable_Bonds:                  10
##########                       Formal_Charge:          0.00999917
##########                     HBond_Acceptors:                   7
##########                        HBond_Donors:                   3
##########                         Heavy_Atoms:                  25
##########                          Grid_Score:          -32.671730
##########                     Grid_vdw_energy:          -32.723259
##########                      Grid_es_energy:            0.051527
##########           Internal_energy_repulsive:           19.111107

@<TRIPOS>MOLECULE
ZINC000821177065
 48 51 1 0 0
SMALL
USER_CHARGES


@<TRIPOS>ATOM
      1 O1         -9.5353   -0.7811   53.0081 O.2     1  ZINC000821177065   -0.5600
      2 C2         -9.2801   -0.0611   53.9540 C.2     1  ZINC000821177065    0.7100
      3 N3        -10.0532   -0.0986   55.0574 N.am    1  ZINC000821177065   -0.7300
      4 C4        -11.2046   -1.0026   55.1146 C.3     1  ZINC000821177065    0.1200
      5 C5        -11.7405   -1.0559   56.5467 C.3     1  ZINC000821177065    0.1900
      6 O6        -11.8654    0.2725   57.0583 O.3     1  ZINC000821177065   -0.5400
      7 C7        -13.1109   -1.7361   56.5535 C.3     1  ZINC000821177065   -0.1500
      8 C8        -14.1821   -1.1576   57.4803 C.3     1  ZINC000821177065   -0.1600
      9 C9        -14.2895   -0.9562   55.9673 C.3     1  ZINC000821177065   -0.1700
     10 C10       -10.7719   -1.8515   57.4243 C.3     1  ZINC000821177065   -0.1800
     11 C11       -11.3748   -2.8247   58.4392 C.3     1  ZINC000821177065   -0.1900
     12 C12       -10.6792   -3.3600   57.1860 C.3     1  ZINC000821177065   -0.1700
     13 N13        -8.2209    0.7706   53.9014 N.am    1  ZINC000821177065   -0.6500
     14 C14        -7.4166    0.8096   52.7536 C.2     1  ZINC000821177065    0.3200
     15 N15        -6.8871    1.8849   52.2197 N.2     1  ZINC000821177065   -0.3200
     16 N16        -6.1574    1.4971   51.0888 N.pl3   1  ZINC000821177065   -0.3600
     17 C17        -5.4079    2.3890   50.2007 C.3     1  ZINC000821177065    0.1900
     18 C18        -4.1717    2.8804   50.9088 C.ar    1  ZINC000821177065    0.1100
     19 C19        -4.2312    4.0360   51.6642 C.ar    1  ZINC000821177065   -0.1500
     20 C20        -3.0881    4.4793   52.3121 C.ar    1  ZINC000821177065   -0.0700
     21 C21        -1.9233    3.7402   52.1751 C.ar    1  ZINC000821177065   -0.1700
     22 C22        -1.9399    2.5940   51.4027 C.ar    1  ZINC000821177065    0.1000
     23 N23        -3.0469    2.1995   50.8048 N.ar    1  ZINC000821177065   -0.4700
     24 C24        -6.2651    0.1578   50.9607 C.2     1  ZINC000821177065    0.0700
     25 C25        -7.0321   -0.2957   51.9781 C.2     1  ZINC000821177065   -0.2600
     26 H26        -9.8472    0.4729   55.8136 H       1  ZINC000821177065    0.4000
     27 H27       -11.9861   -0.6384   54.4476 H       1  ZINC000821177065    0.0700
     28 H28       -10.8981   -2.0014   54.8040 H       1  ZINC000821177065    0.0800
     29 H29       -12.4958    0.8229   56.5740 H       1  ZINC000821177065    0.3800
     30 H30       -13.1004   -2.8164   56.4086 H       1  ZINC000821177065    0.1100
     31 H31       -14.8765   -1.8573   57.9454 H       1  ZINC000821177065    0.0900
     32 H32       -13.9105   -0.2925   58.0851 H       1  ZINC000821177065    0.1100
     33 H33       -14.0886    0.0414   55.5769 H       1  ZINC000821177065    0.1000
     34 H34       -15.0545   -1.5234   55.4372 H       1  ZINC000821177065    0.0900
     35 H35        -9.8581   -1.3297   57.7083 H       1  ZINC000821177065    0.1100
     36 H36       -10.8578   -2.9434   59.3914 H       1  ZINC000821177065    0.1000
     37 H37       -12.4615   -2.8984   58.4818 H       1  ZINC000821177065    0.1100
     38 H38       -11.3081   -3.7857   56.4042 H       1  ZINC000821177065    0.0900
     39 H39        -9.7043   -3.8307   57.3137 H       1  ZINC000821177065    0.1000
     40 H40        -8.0149    1.3421   54.6576 H       1  ZINC000821177065    0.4100
     41 H41        -5.1194    1.8469   49.3002 H       1  ZINC000821177065    0.1000
     42 H42        -6.0328    3.2396   49.9282 H       1  ZINC000821177065    0.1200
     43 H43        -5.1561    4.5871   51.7485 H       1  ZINC000821177065    0.1400
     44 H44        -3.1048    5.3793   52.9090 H       1  ZINC000821177065    0.1400
     45 H45        -1.0143    4.0561   52.6654 H       1  ZINC000821177065    0.1400
     46 H46        -1.0365    2.0128   51.2906 H       1  ZINC000821177065    0.1600
     47 H47        -5.8148   -0.4451   50.1861 H       1  ZINC000821177065    0.1800
     48 H48        -7.3063   -1.3248   52.1578 H       1  ZINC000821177065    0.1700
@<TRIPOS>BOND
     1     1     2    2
     2     2     3   am
     3     2    13   am
     4     3     4    1
     5     3    26    1
     6     4     5    1
     7     4    27    1
     8     4    28    1
     9     5     6    1
    10     5     7    1
    11     5    10    1
    12     6    29    1
    13     7     9    1
    14     7     8    1
    15     7    30    1
    16     8     9    1
    17     8    31    1
    18     8    32    1
    19     9    33    1
    20     9    34    1
    21    10    12    1
    22    10    11    1
    23    10    35    1
    24    11    12    1
    25    11    36    1
    26    11    37    1
    27    12    38    1
    28    12    39    1
    29    13    14    1
    30    13    40    1
    31    14    25    1
    32    14    15    2
    33    15    16    1
    34    16    17    1
    35    16    24    1
    36    17    18    1
    37    17    41    1
    38    17    42    1
    39    18    23   ar
    40    18    19   ar
    41    19    20   ar
    42    19    43    1
    43    20    21   ar
    44    20    44    1
    45    21    22   ar
    46    21    45    1
    47    22    23   ar
    48    22    46    1
    49    24    25    2
    50    24    47    1
    51    25    48    1
@<TRIPOS>SUBSTRUCTURE
     1 ZINC000821177065        1 TEMP              0 ****  ****    0 ROOT


##########                                Name:    ZINC000487792031
##########                DOCK_Rotatable_Bonds:                  12
##########                         Heavy_Atoms:                  29
##########                    Molecular_Weight:             414.569
##########                DOCK_Rotatable_Bonds:                  12
##########                       Formal_Charge:          -0.0100001
##########                     HBond_Acceptors:                   6
##########                        HBond_Donors:                   1
##########                         Heavy_Atoms:                  29
##########                          Grid_Score:          -32.599380
##########                     Grid_vdw_energy:          -32.491371
##########                      Grid_es_energy:           -0.108011
##########           Internal_energy_repulsive:           19.072548

@<TRIPOS>MOLECULE
ZINC000487792031
 59 60 1 0 0
SMALL
USER_CHARGES


@<TRIPOS>ATOM
      1 C1        -14.0219   -2.8044   59.3586 C.2     1  ZINC000487792031   -0.1900
      2 C2        -12.8594   -2.5434   59.9033 C.2     1  ZINC000487792031   -0.1500
      3 C3        -11.6124   -2.5492   59.0570 C.3     1  ZINC000487792031   -0.0900
      4 C4        -11.9035   -1.8737   57.7155 C.3     1  ZINC000487792031   -0.0900
      5 C5        -10.5843   -1.5360   57.0177 C.3     1  ZINC000487792031   -0.0700
      6 H6         -9.9521   -2.4235   56.9867 H       1  ZINC000487792031    0.1100
      7 C7        -10.8644   -1.0694   55.6124 C.2     1  ZINC000487792031    0.5200
      8 O8        -11.9838   -1.1613   55.1548 O.2     1  ZINC000487792031   -0.5300
      9 N9         -9.8711   -0.5502   54.8641 N.am    1  ZINC000487792031   -0.7200
     10 C10       -10.1429   -0.0982   53.4974 C.3     1  ZINC000487792031    0.1500
     11 C11        -8.9435    0.6430   52.9654 C.ar    1  ZINC000487792031   -0.0500
     12 C12        -9.0104    2.0082   52.7590 C.ar    1  ZINC000487792031   -0.1200
     13 C13        -7.9102    2.6882   52.2710 C.ar    1  ZINC000487792031   -0.0200
     14 C14        -6.7429    2.0030   51.9899 C.ar    1  ZINC000487792031   -0.6700
     15 S15        -5.3408    2.8696   51.3674 S.o2    1  ZINC000487792031    2.6900
     16 O16        -4.4998    1.8938   50.7674 O.2     1  ZINC000487792031   -0.9500
     17 O17        -5.8452    3.9978   50.6661 O.2     1  ZINC000487792031   -0.9500
     18 N18        -4.5118    3.4624   52.6726 N.am    1  ZINC000487792031   -1.0000
     19 C19        -5.1665    4.3933   53.5950 C.3     1  ZINC000487792031    0.1200
     20 C20        -5.5488    3.6545   54.8791 C.3     1  ZINC000487792031   -0.1800
     21 C21        -3.1235    3.0559   52.9047 C.3     1  ZINC000487792031    0.1100
     22 C22        -2.1877    4.2156   52.5576 C.3     1  ZINC000487792031   -0.1800
     23 C23        -6.6757    0.6379   52.1975 C.ar    1  ZINC000487792031   -0.0200
     24 C24        -7.7747   -0.0414   52.6892 C.ar    1  ZINC000487792031   -0.1200
     25 C25        -9.8789   -0.4431   57.7786 C.ar    1  ZINC000487792031   -0.0800
     26 C26       -10.3637    0.8509   57.7382 C.ar    1  ZINC000487792031   -0.1100
     27 C27        -9.7166    1.8534   58.4362 C.ar    1  ZINC000487792031   -0.1100
     28 C28        -8.5851    1.5619   59.1749 C.ar    1  ZINC000487792031   -0.1200
     29 C29        -8.1010    0.2678   59.2161 C.ar    1  ZINC000487792031   -0.1200
     30 C30        -8.7505   -0.7356   58.5215 C.ar    1  ZINC000487792031   -0.1100
     31 H31       -14.9155   -2.8002   59.9652 H       1  ZINC000487792031    0.1000
     32 H32       -14.0872   -3.0194   58.3023 H       1  ZINC000487792031    0.1000
     33 H33       -12.7945   -2.3242   60.9588 H       1  ZINC000487792031    0.1100
     34 H34       -10.8205   -2.0064   59.5730 H       1  ZINC000487792031    0.0700
     35 H35       -11.2950   -3.5777   58.8846 H       1  ZINC000487792031    0.0700
     36 H36       -12.4844   -2.5488   57.0871 H       1  ZINC000487792031    0.0800
     37 H37       -12.4695   -0.9578   57.8851 H       1  ZINC000487792031    0.0700
     38 H38        -8.9760   -0.4757   55.2305 H       1  ZINC000487792031    0.4000
     39 H39       -10.3474   -0.9610   52.8633 H       1  ZINC000487792031    0.0800
     40 H40       -11.0083    0.5645   53.4992 H       1  ZINC000487792031    0.0800
     41 H41        -9.9223    2.5436   52.9788 H       1  ZINC000487792031    0.1400
     42 H42        -7.9626    3.7547   52.1092 H       1  ZINC000487792031    0.1400
     43 H43        -4.4835    5.2083   53.8344 H       1  ZINC000487792031    0.0800
     44 H44        -6.0643    4.7972   53.1272 H       1  ZINC000487792031    0.0800
     45 H45        -6.2319    2.8395   54.6398 H       1  ZINC000487792031    0.0600
     46 H46        -4.6511    3.2506   55.3470 H       1  ZINC000487792031    0.0600
     47 H47        -6.0360    4.3471   55.5654 H       1  ZINC000487792031    0.0700
     48 H48        -2.9943    2.7861   53.9529 H       1  ZINC000487792031    0.0900
     49 H49        -2.8864    2.1973   52.2766 H       1  ZINC000487792031    0.0900
     50 H50        -2.3169    4.4854   51.5094 H       1  ZINC000487792031    0.0600
     51 H51        -2.4248    5.0743   53.1856 H       1  ZINC000487792031    0.0600
     52 H52        -1.1549    3.9131   52.7303 H       1  ZINC000487792031    0.0700
     53 H53        -5.7637    0.1027   51.9782 H       1  ZINC000487792031    0.1400
     54 H54        -7.7221   -1.1079   52.8514 H       1  ZINC000487792031    0.1400
     55 H55       -11.2476    1.0786   57.1611 H       1  ZINC000487792031    0.1200
     56 H56       -10.0949    2.8645   58.4041 H       1  ZINC000487792031    0.1200
     57 H57        -8.0793    2.3453   59.7198 H       1  ZINC000487792031    0.1200
     58 H58        -7.2168    0.0401   59.7930 H       1  ZINC000487792031    0.1200
     59 H59        -8.3722   -1.7468   58.5537 H       1  ZINC000487792031    0.1200
@<TRIPOS>BOND
     1     1     2    2
     2     1    31    1
     3     1    32    1
     4     2     3    1
     5     2    33    1
     6     3     4    1
     7     3    34    1
     8     3    35    1
     9     4     5    1
    10     4    36    1
    11     4    37    1
    12     5     6    1
    13     5     7    1
    14     5    25    1
    15     7     8    2
    16     7     9   am
    17     9    10    1
    18     9    38    1
    19    10    11    1
    20    10    39    1
    21    10    40    1
    22    11    24   ar
    23    11    12   ar
    24    12    13   ar
    25    12    41    1
    26    13    14   ar
    27    13    42    1
    28    14    15    1
    29    14    23   ar
    30    15    16    2
    31    15    17    2
    32    15    18   am
    33    18    19    1
    34    18    21    1
    35    19    20    1
    36    19    43    1
    37    19    44    1
    38    20    45    1
    39    20    46    1
    40    20    47    1
    41    21    22    1
    42    21    48    1
    43    21    49    1
    44    22    50    1
    45    22    51    1
    46    22    52    1
    47    23    24   ar
    48    23    53    1
    49    24    54    1
    50    25    30   ar
    51    25    26   ar
    52    26    27   ar
    53    26    55    1
    54    27    28   ar
    55    27    56    1
    56    28    29   ar
    57    28    57    1
    58    29    30   ar
    59    29    58    1
    60    30    59    1
@<TRIPOS>SUBSTRUCTURE
     1 ZINC000487792031        1 TEMP              0 ****  ****    0 ROOT


##########                                Name:    ZINC000981700465
##########                DOCK_Rotatable_Bonds:                   9
##########                         Heavy_Atoms:                  26
##########                    Molecular_Weight:             356.428
##########                DOCK_Rotatable_Bonds:                   9
##########                       Formal_Charge:               -0.01
##########                     HBond_Acceptors:                   8
##########                        HBond_Donors:                   3
##########                         Heavy_Atoms:                  26
##########                          Grid_Score:          -32.573124
##########                     Grid_vdw_energy:          -32.584751
##########                      Grid_es_energy:            0.011629
##########           Internal_energy_repulsive:           12.478023

@<TRIPOS>MOLECULE
ZINC000981700465
 50 52 1 0 0
SMALL
USER_CHARGES


@<TRIPOS>ATOM
      1 C1         -7.9140   -0.9989   59.6733 C.3     1  ZINC000981700465   -0.1500
      2 C2         -8.1042    0.4612   59.2572 C.3     1  ZINC000981700465   -0.1100
      3 C3         -9.5693    0.6990   58.8861 C.3     1  ZINC000981700465   -0.0500
      4 C4         -9.9300   -0.1502   57.6947 C.2     1  ZINC000981700465    0.1400
      5 N5        -10.5832   -1.2789   57.7273 N.2     1  ZINC000981700465   -0.2900
      6 N6        -10.7203   -1.7612   56.4209 N.pl3   1  ZINC000981700465   -0.4600
      7 C7        -10.1310   -0.8936   55.5827 C.2     1  ZINC000981700465    0.1000
      8 C8         -9.6255    0.1397   56.3457 C.2     1  ZINC000981700465   -0.2900
      9 C9         -8.8955    1.3197   55.8475 C.2     1  ZINC000981700465    0.5900
     10 O10        -8.4517    2.1360   56.6319 O.2     1  ZINC000981700465   -0.5300
     11 N11        -8.7201    1.4936   54.5225 N.am    1  ZINC000981700465   -0.7300
     12 C12        -7.9962    2.6671   54.0273 C.3     1  ZINC000981700465    0.1300
     13 C13        -7.8676    2.5821   52.5051 C.3     1  ZINC000981700465   -0.1100
     14 H14        -8.7472    2.1032   52.0751 H       1  ZINC000981700465    0.0900
     15 C15        -7.6673    3.9931   51.8984 C.3     1  ZINC000981700465   -0.1200
     16 C16        -6.9717    3.6889   50.5483 C.3     1  ZINC000981700465   -0.1300
     17 C17        -6.0172    2.5203   50.8692 C.3     1  ZINC000981700465    0.1400
     18 H18        -5.9825    1.8253   50.0302 H       1  ZINC000981700465    0.1000
     19 N19        -4.6741    3.0325   51.1520 N.am    1  ZINC000981700465   -0.7100
     20 C20        -3.5988    2.2409   50.9689 C.2     1  ZINC000981700465    0.5600
     21 O21        -3.7433    1.1020   50.5707 O.2     1  ZINC000981700465   -0.5200
     22 C22        -2.2405    2.7594   51.2531 C.ar    1  ZINC000981700465   -0.1400
     23 C23        -1.9938    3.5729   52.3664 C.ar    1  ZINC000981700465   -0.0600
     24 C24        -0.6975    4.0191   52.5667 C.ar    1  ZINC000981700465    0.0400
     25 N25         0.2554    3.6750   51.7224 N.ar    1  ZINC000981700465   -0.2200
     26 N26         0.0362    2.9304   50.7011 N.ar    1  ZINC000981700465   -0.2400
     27 C27        -1.1597    2.4489   50.4230 C.ar    1  ZINC000981700465    0.0700
     28 C28        -6.5886    1.8134   52.1134 C.3     1  ZINC000981700465   -0.1200
     29 H29        -8.1897   -1.6516   58.8449 H       1  ZINC000981700465    0.0600
     30 H30        -6.8703   -1.1683   59.9376 H       1  ZINC000981700465    0.0600
     31 H31        -8.5467   -1.2169   60.5337 H       1  ZINC000981700465    0.0500
     32 H32        -7.8287    1.1139   60.0856 H       1  ZINC000981700465    0.0600
     33 H33        -7.4715    0.6792   58.3968 H       1  ZINC000981700465    0.0600
     34 H34       -10.2059    0.4311   59.7294 H       1  ZINC000981700465    0.1000
     35 H35        -9.7157    1.7508   58.6402 H       1  ZINC000981700465    0.0800
     36 H36       -11.1661   -2.5835   56.1642 H       1  ZINC000981700465    0.4500
     37 H37       -10.0680   -0.9851   54.5084 H       1  ZINC000981700465    0.1800
     38 H38        -9.0730    0.8418   53.8969 H       1  ZINC000981700465    0.4000
     39 H39        -8.5426    3.5711   54.2959 H       1  ZINC000981700465    0.0700
     40 H40        -7.0027    2.6967   54.4748 H       1  ZINC000981700465    0.0700
     41 H41        -8.6270    4.4837   51.7366 H       1  ZINC000981700465    0.0700
     42 H42        -7.0245    4.6000   52.5360 H       1  ZINC000981700465    0.0700
     43 H43        -7.7054    3.3879   49.8005 H       1  ZINC000981700465    0.0800
     44 H44        -6.4096    4.5573   50.2047 H       1  ZINC000981700465    0.0700
     45 H45        -4.5587    3.9412   51.4710 H       1  ZINC000981700465    0.4000
     46 H46        -2.7882    3.8438   53.0462 H       1  ZINC000981700465    0.1700
     47 H47        -0.4676    4.6485   53.4137 H       1  ZINC000981700465    0.1800
     48 H48        -1.3050    1.8248   49.5537 H       1  ZINC000981700465    0.1700
     49 H49        -5.8670    1.8523   52.9294 H       1  ZINC000981700465    0.0800
     50 H50        -6.8294    0.7771   51.8765 H       1  ZINC000981700465    0.0800
@<TRIPOS>BOND
     1     1     2    1
     2     1    29    1
     3     1    30    1
     4     1    31    1
     5     2     3    1
     6     2    32    1
     7     2    33    1
     8     3     4    1
     9     3    34    1
    10     3    35    1
    11     4     8    1
    12     4     5    2
    13     5     6    1
    14     6     7    1
    15     6    36    1
    16     7     8    2
    17     7    37    1
    18     8     9    1
    19     9    10    2
    20     9    11   am
    21    11    12    1
    22    11    38    1
    23    12    13    1
    24    12    39    1
    25    12    40    1
    26    13    14    1
    27    13    28    1
    28    13    15    1
    29    15    16    1
    30    15    41    1
    31    15    42    1
    32    16    17    1
    33    16    43    1
    34    16    44    1
    35    17    18    1
    36    17    19    1
    37    17    28    1
    38    19    20   am
    39    19    45    1
    40    20    21    2
    41    20    22    1
    42    22    27   ar
    43    22    23   ar
    44    23    24   ar
    45    23    46    1
    46    24    25   ar
    47    24    47    1
    48    25    26   ar
    49    26    27   ar
    50    27    48    1
    51    28    49    1
    52    28    50    1
@<TRIPOS>SUBSTRUCTURE
     1 ZINC000981700465        1 TEMP              0 ****  ****    0 ROOT


##########                                Name:    ZINC000426567005
##########                DOCK_Rotatable_Bonds:                   9
##########                         Heavy_Atoms:                  31
##########                    Molecular_Weight:             417.467
##########                DOCK_Rotatable_Bonds:                   9
##########                       Formal_Charge:        -2.23517e-07
##########                     HBond_Acceptors:                   8
##########                        HBond_Donors:                   4
##########                         Heavy_Atoms:                  31
##########                          Grid_Score:          -32.541885
##########                     Grid_vdw_energy:          -32.425571
##########                      Grid_es_energy:           -0.116315
##########           Internal_energy_repulsive:           14.026303

@<TRIPOS>MOLECULE
ZINC000426567005
 54 57 1 0 0
SMALL
USER_CHARGES


@<TRIPOS>ATOM
      1 O1         -2.8794    2.8154   51.8553 O.2     1  ZINC000426567005   -0.4900
      2 C2         -3.4778    2.3059   50.9302 C.2     1  ZINC000426567005    0.5200
      3 N3         -2.8042    1.8891   49.8398 N.am    1  ZINC000426567005   -0.6000
      4 C4         -1.4157    2.0492   49.7716 C.2     1  ZINC000426567005    0.3000
      5 N5         -0.6542    2.5817   50.6990 N.2     1  ZINC000426567005   -0.3100
      6 N6          0.6705    2.5549   50.2446 N.pl3   1  ZINC000426567005   -0.4600
      7 C7          0.6809    1.9909   49.0182 C.2     1  ZINC000426567005    0.1100
      8 C8          1.8967    1.7611   48.1579 C.3     1  ZINC000426567005   -0.0300
      9 C9          3.0199    2.7610   48.5285 C.3     1  ZINC000426567005   -0.1200
     10 C10         4.2987    2.0329   48.0451 C.3     1  ZINC000426567005   -0.1300
     11 C11         4.0382    0.5493   48.3783 C.3     1  ZINC000426567005   -0.1300
     12 C12         2.5110    0.3765   48.4500 C.3     1  ZINC000426567005   -0.1200
     13 C13        -0.5920    1.6626   48.7015 C.2     1  ZINC000426567005   -0.2600
     14 C14        -4.9587    2.1351   51.0029 C.2     1  ZINC000426567005    0.5200
     15 O15        -5.5673    1.7007   50.0467 O.2     1  ZINC000426567005   -0.4900
     16 N16        -5.6205    2.4635   52.1302 N.am    1  ZINC000426567005   -0.6400
     17 C17        -7.0024    2.3042   52.1980 C.ar    1  ZINC000426567005    0.1700
     18 C18        -7.8381    3.2039   51.5429 C.ar    1  ZINC000426567005   -0.1300
     19 C19        -9.2044    3.0491   51.6079 C.ar    1  ZINC000426567005   -0.0300
     20 C20        -9.7522    1.9868   52.3324 C.ar    1  ZINC000426567005   -0.1500
     21 C21       -11.2165    1.8176   52.4038 C.2     1  ZINC000426567005    0.5600
     22 O22       -11.9215    2.7540   52.7271 O.2     1  ZINC000426567005   -0.5100
     23 N23       -11.7722    0.6253   52.1108 N.am    1  ZINC000426567005   -0.6700
     24 C24       -13.1598    0.4650   52.1784 C.ar    1  ZINC000426567005    0.1400
     25 C25       -13.9626    0.9023   51.1329 C.ar    1  ZINC000426567005   -0.1500
     26 C26       -15.3327    0.7420   51.2025 C.ar    1  ZINC000426567005   -0.1000
     27 C27       -15.9052    0.1469   52.3118 C.ar    1  ZINC000426567005   -0.1300
     28 C28       -15.1087   -0.2892   53.3547 C.ar    1  ZINC000426567005   -0.1000
     29 C29       -13.7375   -0.1372   53.2887 C.ar    1  ZINC000426567005   -0.1200
     30 C30        -8.9102    1.0847   52.9888 C.ar    1  ZINC000426567005   -0.0600
     31 C31        -7.5446    1.2422   52.9159 C.ar    1  ZINC000426567005   -0.1400
     32 H32        -3.2817    1.4781   49.1023 H       1  ZINC000426567005    0.4300
     33 H33         1.4451    2.8840   50.7270 H       1  ZINC000426567005    0.4400
     34 H34         1.6380    1.8488   47.1026 H       1  ZINC000426567005    0.1100
     35 H35         2.8884    3.7040   47.9979 H       1  ZINC000426567005    0.0800
     36 H36         3.0521    2.9239   49.6058 H       1  ZINC000426567005    0.0700
     37 H37         4.4303    2.1653   46.9713 H       1  ZINC000426567005    0.0700
     38 H38         5.1725    2.3975   48.5852 H       1  ZINC000426567005    0.0700
     39 H39         4.4496   -0.0871   47.5949 H       1  ZINC000426567005    0.0700
     40 H40         4.4879    0.2978   49.3389 H       1  ZINC000426567005    0.0700
     41 H41         2.2194    0.0412   49.4453 H       1  ZINC000426567005    0.0600
     42 H42         2.1811   -0.3438   47.7013 H       1  ZINC000426567005    0.0700
     43 H43        -0.9184    1.1932   47.7854 H       1  ZINC000426567005    0.1700
     44 H44        -5.1342    2.8108   52.8943 H       1  ZINC000426567005    0.4300
     45 H45        -7.4143    4.0245   50.9832 H       1  ZINC000426567005    0.1500
     46 H46        -9.8524    3.7480   51.1000 H       1  ZINC000426567005    0.1400
     47 H47       -11.2097   -0.1217   51.8529 H       1  ZINC000426567005    0.4100
     48 H48       -13.5162    1.3675   50.2665 H       1  ZINC000426567005    0.1300
     49 H49       -15.9576    1.0822   50.3901 H       1  ZINC000426567005    0.1300
     50 H50       -16.9768    0.0227   52.3638 H       1  ZINC000426567005    0.1200
     51 H51       -15.5589   -0.7530   54.2199 H       1  ZINC000426567005    0.1300
     52 H52       -13.1159   -0.4783   54.1033 H       1  ZINC000426567005    0.1300
     53 H53        -9.3304    0.2630   53.5497 H       1  ZINC000426567005    0.1300
     54 H54        -6.8934    0.5455   53.4228 H       1  ZINC000426567005    0.1400
@<TRIPOS>BOND
     1     1     2    2
     2     2     3   am
     3     2    14    1
     4     3     4    1
     5     3    32    1
     6     4    13    1
     7     4     5    2
     8     5     6    1
     9     6     7    1
    10     6    33    1
    11     7     8    1
    12     7    13    2
    13     8    12    1
    14     8     9    1
    15     8    34    1
    16     9    10    1
    17     9    35    1
    18     9    36    1
    19    10    11    1
    20    10    37    1
    21    10    38    1
    22    11    12    1
    23    11    39    1
    24    11    40    1
    25    12    41    1
    26    12    42    1
    27    13    43    1
    28    14    15    2
    29    14    16   am
    30    16    17    1
    31    16    44    1
    32    17    31   ar
    33    17    18   ar
    34    18    19   ar
    35    18    45    1
    36    19    20   ar
    37    19    46    1
    38    20    21    1
    39    20    30   ar
    40    21    22    2
    41    21    23   am
    42    23    24    1
    43    23    47    1
    44    24    29   ar
    45    24    25   ar
    46    25    26   ar
    47    25    48    1
    48    26    27   ar
    49    26    49    1
    50    27    28   ar
    51    27    50    1
    52    28    29   ar
    53    28    51    1
    54    29    52    1
    55    30    31   ar
    56    30    53    1
    57    31    54    1
@<TRIPOS>SUBSTRUCTURE
     1 ZINC000426567005        1 TEMP              0 ****  ****    0 ROOT


##########                                Name:    ZINC000523878927
##########                DOCK_Rotatable_Bonds:                   8
##########                         Heavy_Atoms:                  27
##########                    Molecular_Weight:             376.474
##########                DOCK_Rotatable_Bonds:                   8
##########                       Formal_Charge:          0.00999957
##########                     HBond_Acceptors:                   7
##########                        HBond_Donors:                   3
##########                         Heavy_Atoms:                  27
##########                          Grid_Score:          -32.501610
##########                     Grid_vdw_energy:          -31.509056
##########                      Grid_es_energy:           -0.992552
##########           Internal_energy_repulsive:            6.067536

@<TRIPOS>MOLECULE
ZINC000523878927
 56 58 1 0 0
SMALL
USER_CHARGES


@<TRIPOS>ATOM
      1 C1          2.5293   -0.9838   47.4599 C.3     1  ZINC000523878927   -0.1500
      2 C2          3.0010    0.3625   46.9070 C.3     1  ZINC000523878927   -0.0900
      3 H3          2.7400    0.4333   45.8511 H       1  ZINC000523878927    0.0700
      4 C4          4.5186    0.4756   47.0658 C.3     1  ZINC000523878927   -0.1200
      5 C5          4.8850    0.3763   48.5480 C.3     1  ZINC000523878927   -0.1200
      6 C6          4.2056    1.5103   49.3185 C.3     1  ZINC000523878927   -0.1100
      7 C7          2.6882    1.3971   49.1596 C.3     1  ZINC000523878927   -0.1000
      8 H8          2.3521    0.4380   49.5535 H       1  ZINC000523878927    0.0800
      9 C9          2.0088    2.5311   49.9300 C.3     1  ZINC000523878927    0.1400
     10 N10         0.5556    2.3517   49.8826 N.am    1  ZINC000523878927   -0.7400
     11 C11        -0.2284    2.9577   50.7960 C.2     1  ZINC000523878927    0.7200
     12 O12         0.2705    3.6524   51.6602 O.2     1  ZINC000523878927   -0.5800
     13 N13        -1.5654    2.7938   50.7514 N.am    1  ZINC000523878927   -0.6400
     14 C14        -2.2992    1.9832   49.7626 C.3     1  ZINC000523878927    0.1000
     15 C15        -3.6290    1.6099   50.4642 C.3     1  ZINC000523878927   -0.1400
     16 C16        -3.9360    2.9063   51.2597 C.3     1  ZINC000523878927    0.1500
     17 H17        -4.4246    3.6432   50.6223 H       1  ZINC000523878927    0.1100
     18 N18        -4.7609    2.6108   52.4337 N.am    1  ZINC000523878927   -0.7300
     19 C19        -6.0534    2.2616   52.2785 C.2     1  ZINC000523878927    0.7100
     20 O20        -6.5343    2.1902   51.1640 O.2     1  ZINC000523878927   -0.5700
     21 N21        -6.8128    1.9913   53.3587 N.am    1  ZINC000523878927   -0.6800
     22 C22        -8.1559    1.6284   53.1974 C.ar    1  ZINC000523878927    0.1500
     23 C23        -9.1383    2.6078   53.1384 C.ar    1  ZINC000523878927   -0.1200
     24 C24       -10.4621    2.2480   52.9788 C.ar    1  ZINC000523878927   -0.1300
     25 C25       -10.8100    0.9115   52.8782 C.ar    1  ZINC000523878927    0.0800
     26 F26       -12.1055    0.5615   52.7226 F       1  ZINC000523878927   -0.1400
     27 C27        -9.8317   -0.0667   52.9364 C.ar    1  ZINC000523878927   -0.1300
     28 C28        -8.5061    0.2892   53.0906 C.ar    1  ZINC000523878927   -0.0900
     29 C29        -2.5332    3.3888   51.6847 C.3     1  ZINC000523878927    0.1200
     30 C30         2.3216    1.4964   47.6775 C.3     1  ZINC000523878927   -0.1100
     31 H31         1.4482   -1.0644   47.3467 H       1  ZINC000523878927    0.0500
     32 H32         3.0133   -1.7917   46.9111 H       1  ZINC000523878927    0.0500
     33 H33         2.7904   -1.0546   48.5158 H       1  ZINC000523878927    0.0600
     34 H34         5.0025   -0.3322   46.5170 H       1  ZINC000523878927    0.0600
     35 H35         4.8546    1.4349   46.6720 H       1  ZINC000523878927    0.0600
     36 H36         4.5489   -0.5828   48.9419 H       1  ZINC000523878927    0.0700
     37 H37         5.9661    0.4569   48.6611 H       1  ZINC000523878927    0.0600
     38 H38         4.4668    1.4395   50.3744 H       1  ZINC000523878927    0.0600
     39 H39         4.5417    2.4694   48.9245 H       1  ZINC000523878927    0.0600
     40 H40         2.3430    2.5169   50.9673 H       1  ZINC000523878927    0.0700
     41 H41         2.2718    3.4869   49.4765 H       1  ZINC000523878927    0.0700
     42 H42         0.1578    1.7965   49.1938 H       1  ZINC000523878927    0.3900
     43 H43        -2.4955    2.5675   48.8637 H       1  ZINC000523878927    0.0800
     44 H44        -1.7351    1.0837   49.5158 H       1  ZINC000523878927    0.0800
     45 H45        -4.4118    1.4051   49.7339 H       1  ZINC000523878927    0.1000
     46 H46        -3.4920    0.7626   51.1358 H       1  ZINC000523878927    0.0800
     47 H47        -4.3770    2.6665   53.3227 H       1  ZINC000523878927    0.4000
     48 H48        -6.4290    2.0481   54.2478 H       1  ZINC000523878927    0.4100
     49 H49        -8.8673    3.6504   53.2176 H       1  ZINC000523878927    0.1400
     50 H50       -11.2266    3.0095   52.9328 H       1  ZINC000523878927    0.1400
     51 H51       -10.1051   -1.1087   52.8577 H       1  ZINC000523878927    0.1400
     52 H52        -7.7434   -0.4741   53.1356 H       1  ZINC000523878927    0.1500
     53 H53        -2.3220    3.0631   52.7032 H       1  ZINC000523878927    0.0700
     54 H54        -2.4805    4.4757   51.6225 H       1  ZINC000523878927    0.0800
     55 H55         2.6577    2.4557   47.2836 H       1  ZINC000523878927    0.0700
     56 H56         1.2405    1.4159   47.5643 H       1  ZINC000523878927    0.0700
@<TRIPOS>BOND
     1     1     2    1
     2     1    31    1
     3     1    32    1
     4     1    33    1
     5     2     3    1
     6     2    30    1
     7     2     4    1
     8     4     5    1
     9     4    34    1
    10     4    35    1
    11     5     6    1
    12     5    36    1
    13     5    37    1
    14     6     7    1
    15     6    38    1
    16     6    39    1
    17     7     8    1
    18     7     9    1
    19     7    30    1
    20     9    10    1
    21     9    40    1
    22     9    41    1
    23    10    11   am
    24    10    42    1
    25    11    12    2
    26    11    13   am
    27    13    29    1
    28    13    14    1
    29    14    15    1
    30    14    43    1
    31    14    44    1
    32    15    16    1
    33    15    45    1
    34    15    46    1
    35    16    17    1
    36    16    18    1
    37    16    29    1
    38    18    19   am
    39    18    47    1
    40    19    20    2
    41    19    21   am
    42    21    22    1
    43    21    48    1
    44    22    28   ar
    45    22    23   ar
    46    23    24   ar
    47    23    49    1
    48    24    25   ar
    49    24    50    1
    50    25    26    1
    51    25    27   ar
    52    27    28   ar
    53    27    51    1
    54    28    52    1
    55    29    53    1
    56    29    54    1
    57    30    55    1
    58    30    56    1
@<TRIPOS>SUBSTRUCTURE
     1 ZINC000523878927        1 TEMP              0 ****  ****    0 ROOT


##########                                Name:    ZINC000432833246
##########                DOCK_Rotatable_Bonds:                   5
##########                         Heavy_Atoms:                  25
##########                    Molecular_Weight:             400.318
##########                DOCK_Rotatable_Bonds:                   5
##########                       Formal_Charge:        -3.20375e-07
##########                     HBond_Acceptors:                   4
##########                        HBond_Donors:                   1
##########                         Heavy_Atoms:                  25
##########                          Grid_Score:          -32.489262
##########                     Grid_vdw_energy:          -32.171509
##########                      Grid_es_energy:           -0.317751
##########           Internal_energy_repulsive:            9.706424

@<TRIPOS>MOLECULE
ZINC000432833246
 47 51 1 0 0
SMALL
USER_CHARGES


@<TRIPOS>ATOM
      1 O1         -7.0421   -0.7012   51.8588 O.2     1  ZINC000432833246   -0.5200
      2 C2         -6.7791    0.4560   52.1090 C.2     1  ZINC000432833246    0.5200
      3 C3         -5.6536    1.2451   51.4770 C.3     1  ZINC000432833246   -0.1500
      4 C4         -5.9982    2.7185   51.7951 C.3     1  ZINC000432833246   -0.1100
      5 H5         -6.5663    3.1705   50.9820 H       1  ZINC000432833246    0.1000
      6 C6         -4.7322    3.5256   52.0895 C.3     1  ZINC000432833246    0.1300
      7 N7         -3.6918    3.1729   51.1203 N.pl3   1  ZINC000432833246   -0.7200
      8 C8         -2.3543    3.2662   51.4741 C.ar    1  ZINC000432833246    0.2800
      9 C9         -1.3465    2.6628   50.6847 C.ar    1  ZINC000432833246   -0.1500
     10 C10        -1.6614    1.9511   49.5188 C.ar    1  ZINC000432833246   -0.0700
     11 C11        -0.6632    1.3844   48.7847 C.ar    1  ZINC000432833246   -0.1300
     12 C12         0.6675    1.5028   49.1781 C.ar    1  ZINC000432833246   -0.0600
     13 C13         1.0080    2.1874   50.3054 C.ar    1  ZINC000432833246   -0.0800
     14 Br14        2.8231    2.3328   50.8158 Br      1  ZINC000432833246   -0.0300
     15 C15         0.0044    2.7861   51.0879 C.ar    1  ZINC000432833246    0.1900
     16 N16         0.3105    3.4647   52.1994 N.ar    1  ZINC000432833246   -0.5000
     17 C17        -0.6153    4.0290   52.9396 C.ar    1  ZINC000432833246    0.2400
     18 C18        -0.2044    4.7795   54.1801 C.3     1  ZINC000432833246   -0.1100
     19 C19        -0.0887    3.9834   55.4816 C.3     1  ZINC000432833246   -0.1700
     20 C20         1.1740    4.4710   54.7683 C.3     1  ZINC000432833246   -0.1600
     21 C21        -1.9616    3.9581   52.6092 C.ar    1  ZINC000432833246   -0.2700
     22 C22        -6.8686    2.5718   53.0628 C.3     1  ZINC000432833246    0.1100
     23 N23        -7.4487    1.2259   52.9841 N.am    1  ZINC000432833246   -0.5900
     24 C24        -8.6036    0.7766   53.7654 C.3     1  ZINC000432833246    0.0800
     25 C25        -9.9225    1.5277   53.5728 C.3     1  ZINC000432833246   -0.1900
     26 C26        -9.7563    0.1161   53.0065 C.3     1  ZINC000432833246   -0.1900
     27 H27        -4.6980    0.9716   51.9243 H       1  ZINC000432833246    0.1100
     28 H28        -5.6320    1.0824   50.3994 H       1  ZINC000432833246    0.1000
     29 H29        -4.9540    4.5901   52.0132 H       1  ZINC000432833246    0.0800
     30 H30        -4.3826    3.2985   53.0967 H       1  ZINC000432833246    0.0700
     31 H31        -3.9385    2.8741   50.2311 H       1  ZINC000432833246    0.4000
     32 H32        -2.6898    1.8521   49.2042 H       1  ZINC000432833246    0.1300
     33 H33        -0.9069    0.8363   47.8866 H       1  ZINC000432833246    0.1400
     34 H34         1.4414    1.0444   48.5804 H       1  ZINC000432833246    0.1400
     35 H35        -0.5621    5.8068   54.2483 H       1  ZINC000432833246    0.1300
     36 H36        -0.3707    4.4869   56.4063 H       1  ZINC000432833246    0.1000
     37 H37        -0.3099    2.9169   55.4405 H       1  ZINC000432833246    0.1000
     38 H38         1.7835    3.7252   54.2581 H       1  ZINC000432833246    0.0900
     39 H39         1.7228    5.2953   55.2238 H       1  ZINC000432833246    0.1000
     40 H40        -2.7002    4.4330   53.2378 H       1  ZINC000432833246    0.1400
     41 H41        -6.2526    2.6693   53.9567 H       1  ZINC000432833246    0.0800
     42 H42        -7.6601    3.3212   53.0657 H       1  ZINC000432833246    0.0900
     43 H43        -8.3786    0.4021   54.7641 H       1  ZINC000432833246    0.1300
     44 H44       -10.5654    1.6479   54.4447 H       1  ZINC000432833246    0.1000
     45 H45        -9.9309    2.3563   52.8646 H       1  ZINC000432833246    0.1300
     46 H46        -9.6555    0.0161   51.9258 H       1  ZINC000432833246    0.0900
     47 H47       -10.2899   -0.6925   53.5060 H       1  ZINC000432833246    0.1000
@<TRIPOS>BOND
     1     1     2    2
     2     2    23   am
     3     2     3    1
     4     3     4    1
     5     3    27    1
     6     3    28    1
     7     4     5    1
     8     4     6    1
     9     4    22    1
    10     6     7    1
    11     6    29    1
    12     6    30    1
    13     7     8    1
    14     7    31    1
    15     8    21   ar
    16     8     9   ar
    17     9    15   ar
    18     9    10   ar
    19    10    11   ar
    20    10    32    1
    21    11    12   ar
    22    11    33    1
    23    12    13   ar
    24    12    34    1
    25    13    14    1
    26    13    15   ar
    27    15    16   ar
    28    16    17   ar
    29    17    18    1
    30    17    21   ar
    31    18    20    1
    32    18    19    1
    33    18    35    1
    34    19    20    1
    35    19    36    1
    36    19    37    1
    37    20    38    1
    38    20    39    1
    39    21    40    1
    40    22    23    1
    41    22    41    1
    42    22    42    1
    43    23    24    1
    44    24    26    1
    45    24    25    1
    46    24    43    1
    47    25    26    1
    48    25    44    1
    49    25    45    1
    50    26    46    1
    51    26    47    1
@<TRIPOS>SUBSTRUCTURE
     1 ZINC000432833246        1 TEMP              0 ****  ****    0 ROOT


##########                                Name:    ZINC000537799672
##########                DOCK_Rotatable_Bonds:                   9
##########                         Heavy_Atoms:                  29
##########                    Molecular_Weight:             401.478
##########                DOCK_Rotatable_Bonds:                   9
##########                       Formal_Charge:        -4.47035e-07
##########                     HBond_Acceptors:                   6
##########                        HBond_Donors:                   1
##########                         Heavy_Atoms:                  29
##########                          Grid_Score:          -32.487999
##########                     Grid_vdw_energy:          -30.091980
##########                      Grid_es_energy:           -2.396019
##########           Internal_energy_repulsive:           13.944839

@<TRIPOS>MOLECULE
ZINC000537799672
 57 59 1 0 0
SMALL
USER_CHARGES


@<TRIPOS>ATOM
      1 C1         -7.5244   -0.2205   59.4028 C.3     1  ZINC000537799672    0.0300
      2 O2         -6.9125    0.8919   58.7469 O.3     1  ZINC000537799672   -0.3800
      3 C3         -7.7164    1.4750   57.7194 C.3     1  ZINC000537799672    0.1200
      4 H4         -7.7978    0.7803   56.8835 H       1  ZINC000537799672    0.0900
      5 C5         -9.0906    1.7698   58.2632 C.ar    1  ZINC000537799672   -0.1300
      6 C6         -9.2488    2.7009   59.2728 C.ar    1  ZINC000537799672   -0.0600
      7 C7        -10.5085    2.9721   59.7723 C.ar    1  ZINC000537799672   -0.1500
      8 C8        -11.6124    2.3110   59.2611 C.ar    1  ZINC000537799672    0.1000
      9 F9        -12.8444    2.5756   59.7484 F       1  ZINC000537799672   -0.1400
     10 C10       -11.4528    1.3790   58.2497 C.ar    1  ZINC000537799672   -0.1500
     11 C11       -10.1928    1.1130   57.7484 C.ar    1  ZINC000537799672   -0.0800
     12 C12        -7.0679    2.7754   57.2405 C.3     1  ZINC000537799672    0.1600
     13 H13        -7.0930    3.5114   58.0440 H       1  ZINC000537799672    0.1000
     14 C14        -7.8363    3.3134   56.0317 C.3     1  ZINC000537799672   -0.1600
     15 N15        -5.6774    2.5160   56.8590 N.am    1  ZINC000537799672   -0.7100
     16 C16        -4.7766    3.5184   56.8732 C.2     1  ZINC000537799672    0.5600
     17 O17        -5.1175    4.6372   57.2038 O.2     1  ZINC000537799672   -0.5400
     18 C18        -3.3737    3.2570   56.4866 C.ar    1  ZINC000537799672   -0.1400
     19 C19        -2.5647    2.4498   57.2878 C.ar    1  ZINC000537799672   -0.0800
     20 C20        -1.2565    2.2095   56.9211 C.ar    1  ZINC000537799672   -0.1300
     21 C21        -0.7461    2.7669   55.7623 C.ar    1  ZINC000537799672   -0.0900
     22 C22        -1.5428    3.5684   54.9637 C.ar    1  ZINC000537799672   -0.1100
     23 C23        -2.8542    3.8117   55.3157 C.ar    1  ZINC000537799672   -0.0300
     24 C24        -3.7205    4.6845   54.4445 C.3     1  ZINC000537799672    0.1100
     25 O25        -3.3597    4.4974   53.0745 O.3     1  ZINC000537799672   -0.3800
     26 C26        -3.9572    3.3498   52.4677 C.3     1  ZINC000537799672    0.0900
     27 C27        -5.3546    3.7106   51.9545 C.3     1  ZINC000537799672   -0.1800
     28 C28        -5.9549    2.4988   51.2371 C.3     1  ZINC000537799672    0.0600
     29 O29        -5.0898    2.1008   50.1716 O.3     1  ZINC000537799672   -0.3800
     30 C30        -3.7835    1.7068   50.5968 C.3     1  ZINC000537799672    0.0600
     31 C31        -3.0960    2.8869   51.2886 C.3     1  ZINC000537799672   -0.1500
     32 H32        -7.8012   -0.9712   58.6626 H       1  ZINC000537799672    0.0500
     33 H33        -6.8220   -0.6537   60.1147 H       1  ZINC000537799672    0.0900
     34 H34        -8.4168    0.1151   59.9311 H       1  ZINC000537799672    0.0400
     35 H35        -8.3876    3.2165   59.6714 H       1  ZINC000537799672    0.1300
     36 H36       -10.6317    3.6991   60.5615 H       1  ZINC000537799672    0.1400
     37 H37       -12.3133    0.8625   57.8503 H       1  ZINC000537799672    0.1400
     38 H38       -10.0681    0.3862   56.9592 H       1  ZINC000537799672    0.1300
     39 H39        -8.8906    3.4174   56.2884 H       1  ZINC000537799672    0.0700
     40 H40        -7.4337    4.2860   55.7487 H       1  ZINC000537799672    0.0600
     41 H41        -7.7323    2.6202   55.1971 H       1  ZINC000537799672    0.0700
     42 H42        -5.4050    1.6229   56.5963 H       1  ZINC000537799672    0.4000
     43 H43        -2.9618    2.0147   58.1930 H       1  ZINC000537799672    0.1300
     44 H44        -0.6294    1.5850   57.5402 H       1  ZINC000537799672    0.1300
     45 H45         0.2787    2.5759   55.4800 H       1  ZINC000537799672    0.1300
     46 H46        -1.1382    4.0009   54.0606 H       1  ZINC000537799672    0.1400
     47 H47        -4.7669    4.4135   54.5850 H       1  ZINC000537799672    0.0800
     48 H48        -3.5757    5.7294   54.7190 H       1  ZINC000537799672    0.0800
     49 H49        -4.0326    2.5472   53.2014 H       1  ZINC000537799672    0.0600
     50 H50        -5.9907    3.9884   52.7949 H       1  ZINC000537799672    0.0800
     51 H51        -5.2825    4.5468   51.2591 H       1  ZINC000537799672    0.0800
     52 H52        -6.0642    1.6757   51.9433 H       1  ZINC000537799672    0.0500
     53 H53        -6.9320    2.7630   50.8327 H       1  ZINC000537799672    0.1000
     54 H54        -3.8644    0.8734   51.2947 H       1  ZINC000537799672    0.0500
     55 H55        -3.1963    1.4006   49.7311 H       1  ZINC000537799672    0.1000
     56 H56        -2.9784    3.7065   50.5796 H       1  ZINC000537799672    0.0800
     57 H57        -2.1169    2.5756   51.6527 H       1  ZINC000537799672    0.0800
@<TRIPOS>BOND
     1     1     2    1
     2     1    32    1
     3     1    33    1
     4     1    34    1
     5     2     3    1
     6     3     4    1
     7     3     5    1
     8     3    12    1
     9     5    11   ar
    10     5     6   ar
    11     6     7   ar
    12     6    35    1
    13     7     8   ar
    14     7    36    1
    15     8     9    1
    16     8    10   ar
    17    10    11   ar
    18    10    37    1
    19    11    38    1
    20    12    13    1
    21    12    14    1
    22    12    15    1
    23    14    39    1
    24    14    40    1
    25    14    41    1
    26    15    16   am
    27    15    42    1
    28    16    17    2
    29    16    18    1
    30    18    23   ar
    31    18    19   ar
    32    19    20   ar
    33    19    43    1
    34    20    21   ar
    35    20    44    1
    36    21    22   ar
    37    21    45    1
    38    22    23   ar
    39    22    46    1
    40    23    24    1
    41    24    25    1
    42    24    47    1
    43    24    48    1
    44    25    26    1
    45    26    31    1
    46    26    27    1
    47    26    49    1
    48    27    28    1
    49    27    50    1
    50    27    51    1
    51    28    29    1
    52    28    52    1
    53    28    53    1
    54    29    30    1
    55    30    31    1
    56    30    54    1
    57    30    55    1
    58    31    56    1
    59    31    57    1
@<TRIPOS>SUBSTRUCTURE
     1 ZINC000537799672        1 TEMP              0 ****  ****    0 ROOT


##########                                Name:    ZINC000027473870
##########                DOCK_Rotatable_Bonds:                  10
##########                         Heavy_Atoms:                  31
##########                    Molecular_Weight:             422.502
##########                DOCK_Rotatable_Bonds:                  10
##########                       Formal_Charge:        -7.45058e-08
##########                     HBond_Acceptors:                   7
##########                        HBond_Donors:                   1
##########                         Heavy_Atoms:                  31
##########                          Grid_Score:          -32.455254
##########                     Grid_vdw_energy:          -32.423405
##########                      Grid_es_energy:           -0.031848
##########           Internal_energy_repulsive:           20.248539

@<TRIPOS>MOLECULE
ZINC000027473870
 58 60 1 0 0
SMALL
USER_CHARGES


@<TRIPOS>ATOM
      1 C1         -7.7808    4.3033   52.7306 C.3     1  ZINC000027473870   -0.1400
      2 C2         -6.9436    3.3694   53.6069 C.3     1  ZINC000027473870   -0.0800
      3 C3         -6.6981    2.0769   52.8720 C.2     1  ZINC000027473870    0.1700
      4 C4         -5.6719    1.8237   51.9836 C.2     1  ZINC000027473870   -0.2900
      5 C5         -4.6133    2.7659   51.5779 C.2     1  ZINC000027473870    0.6000
      6 O6         -4.7922    3.5116   50.6341 O.2     1  ZINC000027473870   -0.5400
      7 N7         -3.4473    2.8010   52.2528 N.am    1  ZINC000027473870   -0.7200
      8 C8         -2.3960    3.7386   51.8506 C.3     1  ZINC000027473870    0.1600
      9 C9         -1.2526    2.9762   51.2322 C.ar    1  ZINC000027473870   -0.0900
     10 C10        -1.4699    2.2030   50.1056 C.ar    1  ZINC000027473870   -0.1100
     11 C11        -0.4277    1.5021   49.5347 C.ar    1  ZINC000027473870   -0.1100
     12 C12         0.8482    1.5747   50.0961 C.ar    1  ZINC000027473870   -0.1200
     13 C13         1.9700    0.8266   49.4894 C.2     1  ZINC000027473870    0.5600
     14 O14         2.4745   -0.1033   50.0878 O.2     1  ZINC000027473870   -0.5300
     15 N15         2.4330    1.1758   48.2728 N.am    1  ZINC000027473870   -0.6100
     16 C16         3.5444    0.4346   47.6716 C.3     1  ZINC000027473870    0.1100
     17 C17         2.9929   -0.7202   46.8331 C.3     1  ZINC000027473870   -0.1700
     18 C18         1.8248    2.2966   47.5515 C.3     1  ZINC000027473870    0.0900
     19 C19         2.8851    2.9831   46.6882 C.3     1  ZINC000027473870   -0.1800
     20 C20         1.0606    2.3569   51.2324 C.ar    1  ZINC000027473870   -0.0700
     21 C21         0.0108    3.0569   51.7902 C.ar    1  ZINC000027473870   -0.1000
     22 C22        -5.8260    0.4920   51.5363 C.2     1  ZINC000027473870    0.0900
     23 N23        -6.8770   -0.0126   52.1224 N.2     1  ZINC000027473870   -0.2800
     24 N24        -7.4349    0.9553   52.9651 N.pl3   1  ZINC000027473870   -0.3100
     25 C25        -8.5749    0.7875   53.7640 C.ar    1  ZINC000027473870    0.1300
     26 C26        -8.4770    0.8905   55.1451 C.ar    1  ZINC000027473870   -0.0900
     27 C27        -9.6010    0.7253   55.9304 C.ar    1  ZINC000027473870   -0.1300
     28 C28       -10.8251    0.4572   55.3411 C.ar    1  ZINC000027473870    0.1100
     29 F29       -11.9237    0.2964   56.1108 F       1  ZINC000027473870   -0.1300
     30 C30       -10.9247    0.3541   53.9635 C.ar    1  ZINC000027473870   -0.1400
     31 C31        -9.8040    0.5237   53.1747 C.ar    1  ZINC000027473870   -0.0700
     32 H32        -8.0325    5.2017   53.2940 H       1  ZINC000027473870    0.0700
     33 H33        -7.2096    4.5786   51.8440 H       1  ZINC000027473870    0.0700
     34 H34        -8.6967    3.7948   52.4293 H       1  ZINC000027473870    0.0500
     35 H35        -5.9895    3.8442   53.8358 H       1  ZINC000027473870    0.1200
     36 H36        -7.4790    3.1643   54.5340 H       1  ZINC000027473870    0.0800
     37 H37        -3.3041    2.2053   53.0049 H       1  ZINC000027473870    0.4000
     38 H38        -2.7974    4.4445   51.1237 H       1  ZINC000027473870    0.0800
     39 H39        -2.0393    4.2817   52.7258 H       1  ZINC000027473870    0.0800
     40 H40        -2.4576    2.1477   49.6722 H       1  ZINC000027473870    0.1300
     41 H41        -0.5987    0.8983   48.6558 H       1  ZINC000027473870    0.1500
     42 H42         4.1237    1.1023   47.0339 H       1  ZINC000027473870    0.0800
     43 H43         4.1850    0.0381   48.4594 H       1  ZINC000027473870    0.0800
     44 H44         3.8199   -1.2717   46.3858 H       1  ZINC000027473870    0.0700
     45 H45         2.4137   -1.3880   47.4708 H       1  ZINC000027473870    0.0600
     46 H46         2.3523   -0.3237   46.0453 H       1  ZINC000027473870    0.0600
     47 H47         1.0219    1.9258   46.9144 H       1  ZINC000027473870    0.0800
     48 H48         1.4198    3.0122   48.2671 H       1  ZINC000027473870    0.0900
     49 H49         2.5124    3.9524   46.3573 H       1  ZINC000027473870    0.0700
     50 H50         3.7944    3.1236   47.2727 H       1  ZINC000027473870    0.0700
     51 H51         3.1041    2.3622   45.8194 H       1  ZINC000027473870    0.0600
     52 H52         2.0454    2.4169   51.6718 H       1  ZINC000027473870    0.1300
     53 H53         0.1738    3.6628   52.6693 H       1  ZINC000027473870    0.1300
     54 H54        -5.1860   -0.0187   50.8320 H       1  ZINC000027473870    0.1900
     55 H55        -7.5224    1.0992   55.6052 H       1  ZINC000027473870    0.1500
     56 H56        -9.5251    0.8051   57.0048 H       1  ZINC000027473870    0.1500
     57 H57       -11.8802    0.1445   53.5058 H       1  ZINC000027473870    0.1500
     58 H58        -9.8821    0.4436   52.1006 H       1  ZINC000027473870    0.1400
@<TRIPOS>BOND
     1     1     2    1
     2     1    32    1
     3     1    33    1
     4     1    34    1
     5     2     3    1
     6     2    35    1
     7     2    36    1
     8     3    24    1
     9     3     4    2
    10     4     5    1
    11     4    22    1
    12     5     6    2
    13     5     7   am
    14     7     8    1
    15     7    37    1
    16     8     9    1
    17     8    38    1
    18     8    39    1
    19     9    21   ar
    20     9    10   ar
    21    10    11   ar
    22    10    40    1
    23    11    12   ar
    24    11    41    1
    25    12    13    1
    26    12    20   ar
    27    13    14    2
    28    13    15   am
    29    15    16    1
    30    15    18    1
    31    16    17    1
    32    16    42    1
    33    16    43    1
    34    17    44    1
    35    17    45    1
    36    17    46    1
    37    18    19    1
    38    18    47    1
    39    18    48    1
    40    19    49    1
    41    19    50    1
    42    19    51    1
    43    20    21   ar
    44    20    52    1
    45    21    53    1
    46    22    23    2
    47    22    54    1
    48    23    24    1
    49    24    25    1
    50    25    31   ar
    51    25    26   ar
    52    26    27   ar
    53    26    55    1
    54    27    28   ar
    55    27    56    1
    56    28    29    1
    57    28    30   ar
    58    30    31   ar
    59    30    57    1
    60    31    58    1
@<TRIPOS>SUBSTRUCTURE
     1 ZINC000027473870        1 TEMP              0 ****  ****    0 ROOT


##########                                Name:    ZINC000583220082
##########                DOCK_Rotatable_Bonds:                   9
##########                         Heavy_Atoms:                  29
##########                    Molecular_Weight:             417.492
##########                DOCK_Rotatable_Bonds:                   9
##########                       Formal_Charge:          -0.0400006
##########                     HBond_Acceptors:                  11
##########                        HBond_Donors:                   3
##########                         Heavy_Atoms:                  29
##########                          Grid_Score:          -32.428322
##########                     Grid_vdw_energy:          -30.254864
##########                      Grid_es_energy:           -2.173460
##########           Internal_energy_repulsive:           16.294497

@<TRIPOS>MOLECULE
ZINC000583220082
 52 54 1 0 0
SMALL
USER_CHARGES


@<TRIPOS>ATOM
      1 C1         -9.9757    3.9716   62.4146 C.3     1  ZINC000583220082    0.0800
      2 N2         -9.2724    2.7225   62.1122 N.am    1  ZINC000583220082   -0.6300
      3 C3         -8.8866    1.8177   63.1978 C.3     1  ZINC000583220082    0.0800
      4 C4         -8.9804    2.4058   60.8350 C.2     1  ZINC000583220082    0.5100
      5 O5         -8.3970    1.3723   60.5847 O.2     1  ZINC000583220082   -0.5300
      6 C6         -9.3790    3.3356   59.7182 C.3     1  ZINC000583220082   -0.1000
      7 C7         -8.7473    2.8736   58.4303 C.ar    1  ZINC000583220082   -0.0800
      8 C8         -9.1605    1.6909   57.8448 C.ar    1  ZINC000583220082   -0.0800
      9 C9         -8.5838    1.2645   56.6646 C.ar    1  ZINC000583220082   -0.1400
     10 C10        -7.5881    2.0256   56.0652 C.ar    1  ZINC000583220082    0.1400
     11 N11        -7.0027    1.5974   54.8709 N.am    1  ZINC000583220082   -0.6400
     12 C12        -7.6609    1.7511   53.7049 C.2     1  ZINC000583220082    0.5100
     13 O13        -8.7621    2.2615   53.6922 O.2     1  ZINC000583220082   -0.4900
     14 C14        -7.0353    1.2934   52.4282 C.2     1  ZINC000583220082    0.5100
     15 O15        -7.3734    0.2396   51.9303 O.2     1  ZINC000583220082   -0.5100
     16 N16        -6.0951    2.0508   51.8291 N.am    1  ZINC000583220082   -0.5800
     17 C17        -5.6663    3.3282   52.4187 C.3     1  ZINC000583220082    0.0600
     18 C18        -4.1365    3.3345   52.5067 C.3     1  ZINC000583220082    0.0300
     19 N19        -3.5717    3.0407   51.1829 N.3     1  ZINC000583220082   -0.4300
     20 C20        -2.1978    3.1962   51.1847 C.2     1  ZINC000583220082    0.2900
     21 N21        -1.3282    2.6374   50.3697 N.2     1  ZINC000583220082   -0.5700
     22 C22        -0.0596    2.9348   50.5614 C.2     1  ZINC000583220082    0.5400
     23 N23         0.9386    2.3949   49.7514 N.pl3   1  ZINC000583220082   -0.8200
     24 N24         0.2305    3.7536   51.5371 N.2     1  ZINC000583220082   -0.5500
     25 S25        -1.2554    4.1691   52.2491 S.3     1  ZINC000583220082    0.2000
     26 C26        -3.9486    1.6952   50.7294 C.3     1  ZINC000583220082    0.0500
     27 C27        -5.4663    1.6188   50.5716 C.3     1  ZINC000583220082    0.1100
     28 C28        -7.1757    3.2135   56.6560 C.ar    1  ZINC000583220082   -0.1200
     29 C29        -7.7600    3.6363   57.8336 C.ar    1  ZINC000583220082   -0.0800
     30 H30        -9.2489    4.7680   62.5750 H       1  ZINC000583220082    0.0500
     31 H31       -10.6246    4.2348   61.5792 H       1  ZINC000583220082    0.0800
     32 H32       -10.5767    3.8414   63.3146 H       1  ZINC000583220082    0.0700
     33 H33        -9.2044    2.2386   64.1517 H       1  ZINC000583220082    0.0800
     34 H34        -9.3646    0.8492   63.0507 H       1  ZINC000583220082    0.0600
     35 H35        -7.8039    1.6921   63.1986 H       1  ZINC000583220082    0.0600
     36 H36       -10.4638    3.3325   59.6124 H       1  ZINC000583220082    0.1000
     37 H37        -9.0392    4.3456   59.9476 H       1  ZINC000583220082    0.1000
     38 H38        -9.9347    1.0997   58.3112 H       1  ZINC000583220082    0.1300
     39 H39        -8.9064    0.3404   56.2083 H       1  ZINC000583220082    0.1300
     40 H40        -6.1227    1.1895   54.8810 H       1  ZINC000583220082    0.4200
     41 H41        -6.0001    4.1527   51.7886 H       1  ZINC000583220082    0.0900
     42 H42        -6.0910    3.4315   53.4171 H       1  ZINC000583220082    0.1700
     43 H43        -3.7953    4.3152   52.8383 H       1  ZINC000583220082    0.1100
     44 H44        -3.8100    2.5758   53.2180 H       1  ZINC000583220082    0.0700
     45 H45         1.8416    2.7463   49.7953 H       1  ZINC000583220082    0.4200
     46 H46         0.7300    1.6678   49.1441 H       1  ZINC000583220082    0.4200
     47 H47        -3.4711    1.4871   49.7719 H       1  ZINC000583220082    0.1100
     48 H48        -3.6247    0.9594   51.4654 H       1  ZINC000583220082    0.0600
     49 H49        -5.7600    0.5935   50.3469 H       1  ZINC000583220082    0.1100
     50 H50        -5.7842    2.2790   49.7646 H       1  ZINC000583220082    0.0900
     51 H51        -6.4018    3.8076   56.1927 H       1  ZINC000583220082    0.1400
     52 H52        -7.4400    4.5597   58.2934 H       1  ZINC000583220082    0.1300
@<TRIPOS>BOND
     1     1     2    1
     2     1    30    1
     3     1    31    1
     4     1    32    1
     5     2     3    1
     6     2     4   am
     7     3    33    1
     8     3    34    1
     9     3    35    1
    10     4     5    2
    11     4     6    1
    12     6     7    1
    13     6    36    1
    14     6    37    1
    15     7    29   ar
    16     7     8   ar
    17     8     9   ar
    18     8    38    1
    19     9    10   ar
    20     9    39    1
    21    10    11    1
    22    10    28   ar
    23    11    12   am
    24    11    40    1
    25    12    13    2
    26    12    14    1
    27    14    15    2
    28    14    16   am
    29    16    27    1
    30    16    17    1
    31    17    18    1
    32    17    41    1
    33    17    42    1
    34    18    19    1
    35    18    43    1
    36    18    44    1
    37    19    20    1
    38    19    26    1
    39    20    25    1
    40    20    21    2
    41    21    22    1
    42    22    23    1
    43    22    24    2
    44    23    45    1
    45    23    46    1
    46    24    25    1
    47    26    27    1
    48    26    47    1
    49    26    48    1
    50    27    49    1
    51    27    50    1
    52    28    29   ar
    53    28    51    1
    54    29    52    1
@<TRIPOS>SUBSTRUCTURE
     1 ZINC000583220082        1 TEMP              0 ****  ****    0 ROOT


##########                                Name:    ZINC000410354665
##########                DOCK_Rotatable_Bonds:                   7
##########                         Heavy_Atoms:                  29
##########                    Molecular_Weight:             417.889
##########                DOCK_Rotatable_Bonds:                   7
##########                       Formal_Charge:        -3.72529e-08
##########                     HBond_Acceptors:                   7
##########                        HBond_Donors:                   1
##########                         Heavy_Atoms:                  29
##########                          Grid_Score:          -32.427399
##########                     Grid_vdw_energy:          -31.999130
##########                      Grid_es_energy:           -0.428269
##########           Internal_energy_repulsive:           10.340667

@<TRIPOS>MOLECULE
ZINC000410354665
 53 56 1 0 0
SMALL
USER_CHARGES


@<TRIPOS>ATOM
      1 C1         -7.1627    1.9801   56.6502 C.3     1  ZINC000410354665    0.0200
      2 O2         -8.3065    2.0696   55.7984 O.3     1  ZINC000410354665   -0.3000
      3 C3         -8.3342    1.2498   54.7136 C.ar    1  ZINC000410354665    0.0900
      4 C4         -7.3355    1.3286   53.7629 C.ar    1  ZINC000410354665   -0.1100
      5 C5         -7.3668    0.4842   52.6495 C.ar    1  ZINC000410354665   -0.1400
      6 C6         -6.3016    0.5639   51.6308 C.2     1  ZINC000410354665    0.5700
      7 O7         -6.1623   -0.3362   50.8252 O.2     1  ZINC000410354665   -0.5300
      8 N8         -5.4835    1.6342   51.5936 N.am    1  ZINC000410354665   -0.7200
      9 C9         -4.4274    1.7141   50.5814 C.3     1  ZINC000410354665    0.1700
     10 C10        -3.1828    2.2977   51.1989 C.ar    1  ZINC000410354665   -0.1000
     11 C11        -3.2528    2.9297   52.4262 C.ar    1  ZINC000410354665   -0.0900
     12 C12        -2.1129    3.4687   52.9950 C.ar    1  ZINC000410354665   -0.0300
     13 Cl13       -2.2047    4.2622   54.5363 Cl      1  ZINC000410354665   -0.0400
     14 C14        -0.8960    3.3750   52.3347 C.ar    1  ZINC000410354665    0.0700
     15 O15         0.2161    3.9168   52.9030 O.3     1  ZINC000410354665   -0.2900
     16 C16         1.4791    3.4792   52.3899 C.3     1  ZINC000410354665    0.0200
     17 C17         1.4105    3.5055   50.8571 C.3     1  ZINC000410354665    0.0200
     18 O18         0.3583    2.6285   50.4404 O.3     1  ZINC000410354665   -0.3000
     19 C19        -0.8258    2.7361   51.1028 C.ar    1  ZINC000410354665    0.0600
     20 C20        -1.9722    2.1950   50.5398 C.ar    1  ZINC000410354665   -0.0900
     21 C21        -8.4078   -0.4353   52.5032 C.ar    1  ZINC000410354665   -0.0800
     22 C22        -9.4017   -0.5085   53.4553 C.ar    1  ZINC000410354665   -0.1900
     23 C23        -9.3678    0.3258   54.5640 C.ar    1  ZINC000410354665    0.1400
     24 O24       -10.3493    0.2499   55.4993 O.3     1  ZINC000410354665   -0.2900
     25 C25       -11.3863    1.2309   55.4326 C.3     1  ZINC000410354665    0.0700
     26 C26       -12.3341    0.9377   54.2432 C.3     1  ZINC000410354665   -0.1500
     27 C27       -13.6434    1.6489   54.6662 C.3     1  ZINC000410354665   -0.1200
     28 C28       -13.7325    1.4045   56.1868 C.3     1  ZINC000410354665   -0.1200
     29 C29       -12.2973    1.1387   56.6740 C.3     1  ZINC000410354665   -0.1200
     30 H30        -7.0828    0.9678   57.0460 H       1  ZINC000410354665    0.0600
     31 H31        -6.2652    2.2191   56.0796 H       1  ZINC000410354665    0.0600
     32 H32        -7.2676    2.6854   57.4746 H       1  ZINC000410354665    0.1000
     33 H33        -6.5324    2.0411   53.8794 H       1  ZINC000410354665    0.1500
     34 H34        -5.5938    2.3516   52.2370 H       1  ZINC000410354665    0.4000
     35 H35        -4.2108    0.7152   50.2025 H       1  ZINC000410354665    0.0800
     36 H36        -4.7582    2.3502   49.7604 H       1  ZINC000410354665    0.0900
     37 H37        -4.1991    3.0033   52.9415 H       1  ZINC000410354665    0.1500
     38 H38         2.2675    4.1486   52.7342 H       1  ZINC000410354665    0.1300
     39 H39         1.6828    2.4644   52.7315 H       1  ZINC000410354665    0.0800
     40 H40         1.2009    4.5192   50.5158 H       1  ZINC000410354665    0.0800
     41 H41         2.3588    3.1656   50.4409 H       1  ZINC000410354665    0.1300
     42 H42        -1.9195    1.6962   49.5833 H       1  ZINC000410354665    0.1400
     43 H43        -8.4341   -1.0888   51.6437 H       1  ZINC000410354665    0.1300
     44 H44       -10.2062   -1.2198   53.3407 H       1  ZINC000410354665    0.1400
     45 H45       -10.9598    2.2302   55.3458 H       1  ZINC000410354665    0.0800
     46 H46       -11.9415    1.3672   53.3215 H       1  ZINC000410354665    0.0700
     47 H47       -12.4952   -0.1346   54.1329 H       1  ZINC000410354665    0.0800
     48 H48       -13.5834    2.7164   54.4542 H       1  ZINC000410354665    0.0700
     49 H49       -14.4997    1.2057   54.1577 H       1  ZINC000410354665    0.0700
     50 H50       -14.1383    2.2859   56.6835 H       1  ZINC000410354665    0.0700
     51 H51       -14.3621    0.5380   56.3894 H       1  ZINC000410354665    0.0700
     52 H52       -12.2305    0.1433   57.1132 H       1  ZINC000410354665    0.0800
     53 H53       -12.0067    1.8910   57.4073 H       1  ZINC000410354665    0.0700
@<TRIPOS>BOND
     1     1     2    1
     2     1    30    1
     3     1    31    1
     4     1    32    1
     5     2     3    1
     6     3    23   ar
     7     3     4   ar
     8     4     5   ar
     9     4    33    1
    10     5     6    1
    11     5    21   ar
    12     6     7    2
    13     6     8   am
    14     8     9    1
    15     8    34    1
    16     9    10    1
    17     9    35    1
    18     9    36    1
    19    10    20   ar
    20    10    11   ar
    21    11    12   ar
    22    11    37    1
    23    12    13    1
    24    12    14   ar
    25    14    19   ar
    26    14    15    1
    27    15    16    1
    28    16    17    1
    29    16    38    1
    30    16    39    1
    31    17    18    1
    32    17    40    1
    33    17    41    1
    34    18    19    1
    35    19    20   ar
    36    20    42    1
    37    21    22   ar
    38    21    43    1
    39    22    23   ar
    40    22    44    1
    41    23    24    1
    42    24    25    1
    43    25    29    1
    44    25    26    1
    45    25    45    1
    46    26    27    1
    47    26    46    1
    48    26    47    1
    49    27    28    1
    50    27    48    1
    51    27    49    1
    52    28    29    1
    53    28    50    1
    54    28    51    1
    55    29    52    1
    56    29    53    1
@<TRIPOS>SUBSTRUCTURE
     1 ZINC000410354665        1 TEMP              0 ****  ****    0 ROOT


##########                                Name:    ZINC000508782983
##########                DOCK_Rotatable_Bonds:                   9
##########                         Heavy_Atoms:                  27
##########                    Molecular_Weight:             373.458
##########                DOCK_Rotatable_Bonds:                   9
##########                       Formal_Charge:          -0.0200006
##########                     HBond_Acceptors:                   9
##########                        HBond_Donors:                   2
##########                         Heavy_Atoms:                  27
##########                          Grid_Score:          -32.423737
##########                     Grid_vdw_energy:          -32.965172
##########                      Grid_es_energy:            0.541436
##########           Internal_energy_repulsive:           11.935147

@<TRIPOS>MOLECULE
ZINC000508782983
 54 56 1 0 0
SMALL
USER_CHARGES


@<TRIPOS>ATOM
      1 C1        -10.8965   -3.2979   58.2122 C.3     1  ZINC000508782983   -0.1500
      2 C2        -11.7486   -2.4285   57.2853 C.3     1  ZINC000508782983   -0.1100
      3 C3        -13.1450   -3.0397   57.1539 C.3     1  ZINC000508782983   -0.1500
      4 C4        -11.8618   -1.0190   57.8696 C.3     1  ZINC000508782983    0.1000
      5 N5        -10.5528   -0.3630   57.8196 N.pl3   1  ZINC000508782983   -0.4400
      6 C6         -9.6753   -0.2207   58.8605 C.2     1  ZINC000508782983   -0.0400
      7 C7         -8.6034    0.4375   58.3794 C.2     1  ZINC000508782983   -0.0300
      8 N8         -8.8206    0.6902   57.0801 N.2     1  ZINC000508782983   -0.4700
      9 C9         -9.9841    0.2092   56.7367 C.2     1  ZINC000508782983    0.1700
     10 C10       -10.5957    0.2877   55.3616 C.3     1  ZINC000508782983    0.2100
     11 N11        -9.9893    1.3961   54.6200 N.am    1  ZINC000508782983   -0.6900
     12 C12        -9.9441    1.3612   53.2734 C.2     1  ZINC000508782983    0.5100
     13 O13       -10.4071    0.4123   52.6753 O.2     1  ZINC000508782983   -0.5100
     14 C14        -9.3238    2.4911   52.5170 C.2     1  ZINC000508782983    0.5100
     15 O15       -10.0279    3.3249   51.9864 O.2     1  ZINC000508782983   -0.5200
     16 N16        -7.9825    2.5838   52.4240 N.am    1  ZINC000508782983   -0.5800
     17 C17        -7.1109    1.5806   53.0543 C.3     1  ZINC000508782983    0.0800
     18 C18        -6.1122    1.0767   52.0071 C.3     1  ZINC000508782983    0.0400
     19 N19        -5.4113    2.2225   51.4122 N.3     1  ZINC000508782983   -0.5400
     20 C20        -4.3260    1.7751   50.5292 C.3     1  ZINC000508782983    0.1400
     21 C21        -3.0334    2.4229   50.9541 C.2     1  ZINC000508782983    0.2100
     22 N22        -1.8893    2.3154   50.3355 N.2     1  ZINC000508782983   -0.4900
     23 C23        -0.9613    3.0240   50.9955 C.2     1  ZINC000508782983   -0.0300
     24 C24        -1.5526    3.5921   52.0637 C.2     1  ZINC000508782983   -0.0500
     25 N25        -2.8683    3.2154   52.0350 N.pl3   1  ZINC000508782983   -0.5600
     26 C26        -6.3432    3.1038   50.6961 C.3     1  ZINC000508782983    0.0400
     27 C27        -7.3516    3.6876   51.6844 C.3     1  ZINC000508782983    0.1100
     28 H28       -10.8160   -4.3021   57.7960 H       1  ZINC000508782983    0.0700
     29 H29        -9.9017   -2.8624   58.3059 H       1  ZINC000508782983    0.0600
     30 H30       -11.3650   -3.3485   59.1951 H       1  ZINC000508782983    0.0600
     31 H31       -11.2802   -2.3779   56.3024 H       1  ZINC000508782983    0.0800
     32 H32       -13.5831   -3.1615   58.1446 H       1  ZINC000508782983    0.0600
     33 H33       -13.7753   -2.3809   56.5565 H       1  ZINC000508782983    0.0600
     34 H34       -13.0717   -4.0122   56.6670 H       1  ZINC000508782983    0.0600
     35 H35       -12.5801   -0.4413   57.2881 H       1  ZINC000508782983    0.1000
     36 H36       -12.1979   -1.0807   58.9046 H       1  ZINC000508782983    0.0900
     37 H37        -9.8157   -0.5691   59.8731 H       1  ZINC000508782983    0.1800
     38 H38        -7.7233    0.7134   58.9412 H       1  ZINC000508782983    0.1700
     39 H39       -10.4156   -0.6466   54.8300 H       1  ZINC000508782983    0.0900
     40 H40       -11.6693    0.4543   55.4503 H       1  ZINC000508782983    0.1100
     41 H41        -9.6202    2.1552   55.0981 H       1  ZINC000508782983    0.4200
     42 H42        -6.5718    2.0347   53.8858 H       1  ZINC000508782983    0.0800
     43 H43        -7.7135    0.7476   53.4163 H       1  ZINC000508782983    0.1400
     44 H44        -5.3886    0.4151   52.4834 H       1  ZINC000508782983    0.0900
     45 H45        -6.6457    0.5322   51.2281 H       1  ZINC000508782983    0.0400
     46 H46        -4.2279    0.6915   50.5943 H       1  ZINC000508782983    0.0900
     47 H47        -4.5536    2.0582   49.5015 H       1  ZINC000508782983    0.0700
     48 H48         0.0780    3.1218   50.7187 H       1  ZINC000508782983    0.1700
     49 H49        -1.0805    4.2264   52.7994 H       1  ZINC000508782983    0.1800
     50 H50        -3.5529    3.4664   52.6747 H       1  ZINC000508782983    0.4200
     51 H51        -5.7872    3.9124   50.2216 H       1  ZINC000508782983    0.1100
     52 H52        -6.8735    2.5311   49.9353 H       1  ZINC000508782983    0.0400
     53 H53        -8.1124    4.2493   51.1425 H       1  ZINC000508782983    0.1000
     54 H54        -6.8381    4.3445   52.3865 H       1  ZINC000508782983    0.0800
@<TRIPOS>BOND
     1     1     2    1
     2     1    28    1
     3     1    29    1
     4     1    30    1
     5     2     3    1
     6     2     4    1
     7     2    31    1
     8     3    32    1
     9     3    33    1
    10     3    34    1
    11     4     5    1
    12     4    35    1
    13     4    36    1
    14     5     9    1
    15     5     6    1
    16     6     7    2
    17     6    37    1
    18     7     8    1
    19     7    38    1
    20     8     9    2
    21     9    10    1
    22    10    11    1
    23    10    39    1
    24    10    40    1
    25    11    12   am
    26    11    41    1
    27    12    13    2
    28    12    14    1
    29    14    15    2
    30    14    16   am
    31    16    27    1
    32    16    17    1
    33    17    18    1
    34    17    42    1
    35    17    43    1
    36    18    19    1
    37    18    44    1
    38    18    45    1
    39    19    20    1
    40    19    26    1
    41    20    21    1
    42    20    46    1
    43    20    47    1
    44    21    25    1
    45    21    22    2
    46    22    23    1
    47    23    24    2
    48    23    48    1
    49    24    25    1
    50    24    49    1
    51    25    50    1
    52    26    27    1
    53    26    51    1
    54    26    52    1
    55    27    53    1
    56    27    54    1
@<TRIPOS>SUBSTRUCTURE
     1 ZINC000508782983        1 TEMP              0 ****  ****    0 ROOT


##########                                Name:    ZINC000263872566
##########                DOCK_Rotatable_Bonds:                   9
##########                         Heavy_Atoms:                  26
##########                    Molecular_Weight:             362.469
##########                DOCK_Rotatable_Bonds:                   9
##########                       Formal_Charge:           0.0300001
##########                     HBond_Acceptors:                   6
##########                        HBond_Donors:                   2
##########                         Heavy_Atoms:                  26
##########                          Grid_Score:          -32.403778
##########                     Grid_vdw_energy:          -31.152105
##########                      Grid_es_energy:           -1.251674
##########           Internal_energy_repulsive:           26.656910

@<TRIPOS>MOLECULE
ZINC000263872566
 56 57 1 0 0
SMALL
USER_CHARGES


@<TRIPOS>ATOM
      1 C1          3.9087    0.1488   47.8379 C.3     1  ZINC000263872566   -0.1800
      2 C2          2.4439   -0.2855   47.7562 C.3     1  ZINC000263872566    0.1400
      3 H3          2.0947   -0.1943   46.7276 H       1  ZINC000263872566    0.0700
      4 O4          2.3258   -1.6449   48.1805 O.3     1  ZINC000263872566   -0.5600
      5 C5          1.6084    0.5942   48.6502 C.ar    1  ZINC000263872566   -0.0800
      6 C6          2.0974    0.9925   49.8803 C.ar    1  ZINC000263872566   -0.0900
      7 C7          1.3311    1.7993   50.7004 C.ar    1  ZINC000263872566   -0.1000
      8 C8          0.0760    2.2085   50.2901 C.ar    1  ZINC000263872566   -0.1100
      9 C9         -0.7596    3.0878   51.1843 C.3     1  ZINC000263872566    0.1800
     10 N10        -2.1787    2.7937   50.9703 N.am    1  ZINC000263872566   -0.7400
     11 C11        -3.1200    3.5061   51.6207 C.2     1  ZINC000263872566    0.7100
     12 O12        -2.7914    4.3928   52.3850 O.2     1  ZINC000263872566   -0.5900
     13 N13        -4.4257    3.2356   51.4239 N.am    1  ZINC000263872566   -0.6300
     14 C14        -4.8381    2.1632   50.5081 C.3     1  ZINC000263872566    0.1100
     15 C15        -5.7772    1.2110   51.2551 C.3     1  ZINC000263872566   -0.1200
     16 C16        -6.9385    2.0097   51.8514 C.3     1  ZINC000263872566   -0.0800
     17 C17        -7.8825    1.0715   52.5582 C.2     1  ZINC000263872566    0.4700
     18 O18        -7.4635    0.0514   53.0520 O.2     1  ZINC000263872566   -0.5000
     19 O19        -9.1889    1.3691   52.6393 O.3     1  ZINC000263872566   -0.3500
     20 C20        -9.7971    1.3131   53.9567 C.3     1  ZINC000263872566    0.1200
     21 C21       -10.1085   -0.1418   54.3133 C.3     1  ZINC000263872566   -0.1800
     22 C22        -8.8307    1.8959   54.9898 C.3     1  ZINC000263872566   -0.1400
     23 C23       -11.0930    2.1264   53.9551 C.3     1  ZINC000263872566   -0.1800
     24 C24        -6.3955    3.0345   52.8499 C.3     1  ZINC000263872566   -0.1300
     25 C25        -5.4633    4.0035   52.1256 C.3     1  ZINC000263872566    0.1300
     26 C26        -0.4123    1.8114   49.0593 C.ar    1  ZINC000263872566   -0.1000
     27 C27         0.3555    1.0076   48.2377 C.ar    1  ZINC000263872566   -0.1100
     28 H28         4.2578    0.0576   48.8664 H       1  ZINC000263872566    0.0700
     29 H29         4.5129   -0.4874   47.1912 H       1  ZINC000263872566    0.0600
     30 H30         3.9988    1.1857   47.5143 H       1  ZINC000263872566    0.0700
     31 H31         2.6313   -1.8029   49.0843 H       1  ZINC000263872566    0.3800
     32 H32         3.0779    0.6728   50.2009 H       1  ZINC000263872566    0.1300
     33 H33         1.7128    2.1099   51.6618 H       1  ZINC000263872566    0.1300
     34 H34        -0.5018    2.8963   52.2259 H       1  ZINC000263872566    0.0800
     35 H35        -0.5659    4.1342   50.9486 H       1  ZINC000263872566    0.0800
     36 H36        -2.4410    2.0863   50.3606 H       1  ZINC000263872566    0.4000
     37 H37        -5.3589    2.5935   49.6526 H       1  ZINC000263872566    0.0800
     38 H38        -3.9593    1.6164   50.1663 H       1  ZINC000263872566    0.0800
     39 H39        -6.1665    0.4656   50.5617 H       1  ZINC000263872566    0.0900
     40 H40        -5.2294    0.7131   52.0552 H       1  ZINC000263872566    0.0800
     41 H41        -7.4708    2.5273   51.0533 H       1  ZINC000263872566    0.1100
     42 H42        -9.1852   -0.7211   54.3145 H       1  ZINC000263872566    0.0600
     43 H43       -10.5651   -0.1838   55.3022 H       1  ZINC000263872566    0.0700
     44 H44       -10.7970   -0.5569   53.5773 H       1  ZINC000263872566    0.0800
     45 H45        -8.6088    2.9323   54.7358 H       1  ZINC000263872566    0.0700
     46 H46        -9.2872    1.8538   55.9787 H       1  ZINC000263872566    0.0800
     47 H47        -7.9074    1.3164   54.9910 H       1  ZINC000263872566    0.0700
     48 H48       -11.7816    1.7112   53.2191 H       1  ZINC000263872566    0.0800
     49 H49       -11.5496    2.0844   54.9439 H       1  ZINC000263872566    0.0700
     50 H50       -10.8713    3.1629   53.7010 H       1  ZINC000263872566    0.0600
     51 H51        -7.2249    3.5871   53.2914 H       1  ZINC000263872566    0.0900
     52 H52        -5.8418    2.5195   53.6349 H       1  ZINC000263872566    0.0700
     53 H53        -4.9979    4.6726   52.8492 H       1  ZINC000263872566    0.1000
     54 H54        -6.0326    4.5850   51.4003 H       1  ZINC000263872566    0.0700
     55 H55        -1.3928    2.1313   48.7386 H       1  ZINC000263872566    0.1300
     56 H56        -0.0260    0.6974   47.2761 H       1  ZINC000263872566    0.1300
@<TRIPOS>BOND
     1     1     2    1
     2     1    28    1
     3     1    29    1
     4     1    30    1
     5     2     3    1
     6     2     4    1
     7     2     5    1
     8     4    31    1
     9     5    27   ar
    10     5     6   ar
    11     6     7   ar
    12     6    32    1
    13     7     8   ar
    14     7    33    1
    15     8     9    1
    16     8    26   ar
    17     9    10    1
    18     9    34    1
    19     9    35    1
    20    10    11   am
    21    10    36    1
    22    11    12    2
    23    11    13   am
    24    13    25    1
    25    13    14    1
    26    14    15    1
    27    14    37    1
    28    14    38    1
    29    15    16    1
    30    15    39    1
    31    15    40    1
    32    16    17    1
    33    16    24    1
    34    16    41    1
    35    17    18    2
    36    17    19    1
    37    19    20    1
    38    20    21    1
    39    20    22    1
    40    20    23    1
    41    21    42    1
    42    21    43    1
    43    21    44    1
    44    22    45    1
    45    22    46    1
    46    22    47    1
    47    23    48    1
    48    23    49    1
    49    23    50    1
    50    24    25    1
    51    24    51    1
    52    24    52    1
    53    25    53    1
    54    25    54    1
    55    26    27   ar
    56    26    55    1
    57    27    56    1
@<TRIPOS>SUBSTRUCTURE
     1 ZINC000263872566        1 TEMP              0 ****  ****    0 ROOT


##########                                Name:    ZINC000788423111
##########                DOCK_Rotatable_Bonds:                   7
##########                         Heavy_Atoms:                  23
##########                    Molecular_Weight:             399.243
##########                DOCK_Rotatable_Bonds:                   7
##########                       Formal_Charge:         1.04308e-07
##########                     HBond_Acceptors:                   8
##########                        HBond_Donors:                   1
##########                         Heavy_Atoms:                  23
##########                          Grid_Score:          -32.401989
##########                     Grid_vdw_energy:          -31.454681
##########                      Grid_es_energy:           -0.947307
##########           Internal_energy_repulsive:            4.582364

@<TRIPOS>MOLECULE
ZINC000788423111
 35 37 1 0 0
SMALL
USER_CHARGES


@<TRIPOS>ATOM
      1 O1         -6.5297    3.1594   50.4586 O.3     1  ZINC000788423111   -0.5400
      2 C2         -5.5256    2.6541   51.3410 C.3     1  ZINC000788423111    0.1000
      3 H3         -5.8117    2.8595   52.3725 H       1  ZINC000788423111    0.1300
      4 C4         -4.1899    3.3353   51.0369 C.3     1  ZINC000788423111    0.0300
      5 O5         -3.2236    2.9474   52.0158 O.3     1  ZINC000788423111   -0.2900
      6 C6         -1.9145    3.0632   51.6701 C.ar    1  ZINC000788423111    0.1700
      7 C7         -1.0908    3.9437   52.3551 C.ar    1  ZINC000788423111   -0.2400
      8 C8          0.2420    4.0602   52.0012 C.ar    1  ZINC000788423111    0.1500
      9 F9          1.0454    4.9177   52.6679 F       1  ZINC000788423111   -0.1300
     10 C10         0.7524    3.2976   50.9644 C.ar    1  ZINC000788423111   -0.1600
     11 C11        -0.0688    2.4193   50.2803 C.ar    1  ZINC000788423111   -0.0300
     12 Br12        0.6314    1.3793   48.8647 Br      1  ZINC000788423111   -0.0200
     13 C13        -1.3991    2.2964   50.6349 C.ar    1  ZINC000788423111   -0.1300
     14 C14        -5.3848    1.1436   51.1418 C.3     1  ZINC000788423111    0.1000
     15 N15        -6.5015    0.4585   51.7974 N.pl3   1  ZINC000788423111   -0.1300
     16 N16        -6.8689   -0.7536   51.5676 N.2     1  ZINC000788423111   -0.0500
     17 N17        -7.8815   -1.0343   52.3157 N.2     1  ZINC000788423111   -0.2600
     18 C18        -8.1532    0.0593   53.0444 C.2     1  ZINC000788423111    0.2400
     19 C19        -9.2324    0.2093   54.0449 C.2     1  ZINC000788423111   -0.1300
     20 C20        -9.4627    1.3138   54.7812 C.2     1  ZINC000788423111   -0.0800
     21 C21       -10.5298    1.2155   55.6504 C.2     1  ZINC000788423111   -0.1400
     22 C22       -11.1706    0.0434   55.6296 C.2     1  ZINC000788423111   -0.2000
     23 S23       -10.4184   -1.0243   54.4520 S.3     1  ZINC000788423111    0.1700
     24 N24        -7.2659    0.9731   52.6982 N.2     1  ZINC000788423111   -0.2900
     25 H25        -6.4242    2.8769   49.5398 H       1  ZINC000788423111    0.3800
     26 H26        -3.8455    3.0344   50.0475 H       1  ZINC000788423111    0.0900
     27 H27        -4.3194    4.4172   51.0632 H       1  ZINC000788423111    0.0800
     28 H28        -1.4892    4.5384   53.1639 H       1  ZINC000788423111    0.1500
     29 H29         1.7928    3.3888   50.6892 H       1  ZINC000788423111    0.1500
     30 H30        -2.0394    1.6102   50.1005 H       1  ZINC000788423111    0.1500
     31 H31        -5.3937    0.9153   50.0761 H       1  ZINC000788423111    0.1300
     32 H32        -4.4447    0.8058   51.5779 H       1  ZINC000788423111    0.1300
     33 H33        -8.8594    2.2056   54.6980 H       1  ZINC000788423111    0.1500
     34 H34       -10.8251    2.0263   56.2999 H       1  ZINC000788423111    0.1500
     35 H35       -12.0246   -0.2088   56.2407 H       1  ZINC000788423111    0.1700
@<TRIPOS>BOND
     1     1     2    1
     2     1    25    1
     3     2     3    1
     4     2     4    1
     5     2    14    1
     6     4     5    1
     7     4    26    1
     8     4    27    1
     9     5     6    1
    10     6    13   ar
    11     6     7   ar
    12     7     8   ar
    13     7    28    1
    14     8     9    1
    15     8    10   ar
    16    10    11   ar
    17    10    29    1
    18    11    12    1
    19    11    13   ar
    20    13    30    1
    21    14    15    1
    22    14    31    1
    23    14    32    1
    24    15    24    1
    25    15    16    1
    26    16    17    2
    27    17    18    1
    28    18    19    1
    29    18    24    2
    30    19    23    1
    31    19    20    2
    32    20    21    1
    33    20    33    1
    34    21    22    2
    35    21    34    1
    36    22    23    1
    37    22    35    1
@<TRIPOS>SUBSTRUCTURE
     1 ZINC000788423111        1 TEMP              0 ****  ****    0 ROOT


##########                                Name:    ZINC001070580102
##########                DOCK_Rotatable_Bonds:                   8
##########                         Heavy_Atoms:                  25
##########                    Molecular_Weight:              349.39
##########                DOCK_Rotatable_Bonds:                   8
##########                       Formal_Charge:          -0.0100003
##########                     HBond_Acceptors:                   9
##########                        HBond_Donors:                   3
##########                         Heavy_Atoms:                  25
##########                          Grid_Score:          -32.399845
##########                     Grid_vdw_energy:          -32.216267
##########                      Grid_es_energy:           -0.183578
##########           Internal_energy_repulsive:           13.392751

@<TRIPOS>MOLECULE
ZINC001070580102
 48 50 1 0 0
SMALL
USER_CHARGES


@<TRIPOS>ATOM
      1 C1          2.2051    0.0660   47.3239 C.3     1  ZINC001070580102   -0.0800
      2 C2          1.8961    0.8908   48.5467 C.2     1  ZINC001070580102   -0.0100
      3 C3          0.6711    1.2744   48.9372 C.2     1  ZINC001070580102   -0.1900
      4 C4          0.8648    2.0512   50.1704 C.2     1  ZINC001070580102   -0.2500
      5 C5         -0.1770    2.6930   50.9919 C.2     1  ZINC001070580102    0.6000
      6 O6          0.1327    3.3116   51.9920 O.2     1  ZINC001070580102   -0.5300
      7 N7         -1.4728    2.5943   50.6347 N.am    1  ZINC001070580102   -0.7200
      8 C8         -2.5084    3.2308   51.4523 C.3     1  ZINC001070580102    0.2000
      9 C9         -3.7760    2.4191   51.3786 C.2     1  ZINC001070580102    0.2600
     10 N10        -4.6737    2.3088   52.3241 N.2     1  ZINC001070580102   -0.5100
     11 C11        -5.6625    1.5134   51.9178 C.2     1  ZINC001070580102    0.2300
     12 C12        -6.8789    1.1453   52.7275 C.3     1  ZINC001070580102    0.1400
     13 H13        -6.6799    1.3223   53.7845 H       1  ZINC001070580102    0.0800
     14 C14        -7.2094   -0.3337   52.5103 C.3     1  ZINC001070580102    0.0800
     15 O15        -8.4070   -0.6589   53.2210 O.3     1  ZINC001070580102   -0.3800
     16 C16        -9.5398    0.1206   52.8275 C.3     1  ZINC001070580102    0.0600
     17 C17        -9.2330    1.6042   53.0480 C.3     1  ZINC001070580102    0.0200
     18 N18        -8.0208    1.9662   52.2989 N.3     1  ZINC001070580102   -0.5200
     19 C19        -7.7234    3.3980   52.4388 C.3     1  ZINC001070580102    0.0600
     20 C20        -7.6036    4.0318   51.0514 C.3     1  ZINC001070580102    0.0800
     21 O21        -8.8009    3.7865   50.3107 O.3     1  ZINC001070580102   -0.5700
     22 N22        -5.4066    1.1048   50.7029 N.2     1  ZINC001070580102   -0.2700
     23 N23        -4.1846    1.6869   50.3279 N.pl3   1  ZINC001070580102   -0.4700
     24 C24         2.2103    2.0530   50.3956 C.2     1  ZINC001070580102    0.0900
     25 C25         2.9099    2.7239   51.5495 C.3     1  ZINC001070580102   -0.0900
     26 O26         2.8019    1.3541   49.4221 O.3     1  ZINC001070580102   -0.1700
     27 H27         3.2807   -0.0974   47.2580 H       1  ZINC001070580102    0.0800
     28 H28         1.6953   -0.8949   47.3954 H       1  ZINC001070580102    0.0900
     29 H29         1.8626    0.5936   46.4337 H       1  ZINC001070580102    0.0900
     30 H30        -0.2659    1.0572   48.4459 H       1  ZINC001070580102    0.1500
     31 H31        -1.7197    2.1018   49.8363 H       1  ZINC001070580102    0.4000
     32 H32        -2.1716    3.2854   52.4875 H       1  ZINC001070580102    0.1000
     33 H33        -2.6990    4.2369   51.0788 H       1  ZINC001070580102    0.1100
     34 H34        -7.3551   -0.5216   51.4465 H       1  ZINC001070580102    0.0700
     35 H35        -6.3885   -0.9482   52.8800 H       1  ZINC001070580102    0.1000
     36 H36        -9.7531   -0.0541   51.7730 H       1  ZINC001070580102    0.0600
     37 H37       -10.4042   -0.1653   53.4266 H       1  ZINC001070580102    0.1000
     38 H38       -10.0713    2.2054   52.6962 H       1  ZINC001070580102    0.1200
     39 H39        -9.0722    1.7887   54.1102 H       1  ZINC001070580102    0.0400
     40 H40        -8.5271    3.8836   52.9920 H       1  ZINC001070580102    0.0500
     41 H41        -6.7842    3.5230   52.9777 H       1  ZINC001070580102    0.0800
     42 H42        -7.4541    5.1065   51.1547 H       1  ZINC001070580102    0.0500
     43 H43        -6.7547    3.5958   50.5248 H       1  ZINC001070580102    0.0600
     44 H44        -8.8124    4.1961   49.4348 H       1  ZINC001070580102    0.3800
     45 H45        -3.7239    1.5772   49.4814 H       1  ZINC001070580102    0.4400
     46 H46         2.9868    2.0260   52.3832 H       1  ZINC001070580102    0.0900
     47 H47         3.9088    3.0312   51.2396 H       1  ZINC001070580102    0.0800
     48 H48         2.3404    3.5998   51.8601 H       1  ZINC001070580102    0.1100
@<TRIPOS>BOND
     1     1     2    1
     2     1    27    1
     3     1    28    1
     4     1    29    1
     5     2    26    1
     6     2     3    2
     7     3     4    1
     8     3    30    1
     9     4     5    1
    10     4    24    2
    11     5     6    2
    12     5     7   am
    13     7     8    1
    14     7    31    1
    15     8     9    1
    16     8    32    1
    17     8    33    1
    18     9    23    1
    19     9    10    2
    20    10    11    1
    21    11    12    1
    22    11    22    2
    23    12    13    1
    24    12    18    1
    25    12    14    1
    26    14    15    1
    27    14    34    1
    28    14    35    1
    29    15    16    1
    30    16    17    1
    31    16    36    1
    32    16    37    1
    33    17    18    1
    34    17    38    1
    35    17    39    1
    36    18    19    1
    37    19    20    1
    38    19    40    1
    39    19    41    1
    40    20    21    1
    41    20    42    1
    42    20    43    1
    43    21    44    1
    44    22    23    1
    45    23    45    1
    46    24    25    1
    47    24    26    1
    48    25    46    1
    49    25    47    1
    50    25    48    1
@<TRIPOS>SUBSTRUCTURE
     1 ZINC001070580102        1 TEMP              0 ****  ****    0 ROOT


##########                                Name:    ZINC000451019064
##########                DOCK_Rotatable_Bonds:                   8
##########                         Heavy_Atoms:                  23
##########                    Molecular_Weight:             346.534
##########                DOCK_Rotatable_Bonds:                   8
##########                       Formal_Charge:          -0.0200008
##########                     HBond_Acceptors:                   6
##########                        HBond_Donors:                   1
##########                         Heavy_Atoms:                  23
##########                          Grid_Score:          -32.379982
##########                     Grid_vdw_energy:          -30.475170
##########                      Grid_es_energy:           -1.904813
##########           Internal_energy_repulsive:           11.678817

@<TRIPOS>MOLECULE
ZINC000451019064
 57 58 1 0 0
SMALL
USER_CHARGES


@<TRIPOS>ATOM
      1 C1         -9.9718   -2.0784   58.1104 C.3     1  ZINC000451019064   -0.1500
      2 C2         -9.1247   -1.1406   58.9730 C.3     1  ZINC000451019064    0.0900
      3 H3         -8.3201   -1.7060   59.4431 H       1  ZINC000451019064    0.0700
      4 C4        -10.0040   -0.5070   60.0544 C.3     1  ZINC000451019064    0.0200
      5 N5         -9.2032    0.4506   60.8309 N.3     1  ZINC000451019064   -0.5400
      6 C6         -9.9961    1.0405   61.9177 C.3     1  ZINC000451019064    0.0600
      7 C7         -9.1299    1.1618   63.1731 C.3     1  ZINC000451019064   -0.1300
      8 C8         -9.3331   -0.0725   64.0541 C.3     1  ZINC000451019064    0.1100
      9 N9         -9.7417    0.3477   65.3967 N.am    1  ZINC000451019064   -1.1200
     10 S10        -8.7264    0.1107   66.6834 S.o2    1  ZINC000451019064    2.6100
     11 O11        -9.4017    0.7140   67.7785 O.2     1  ZINC000451019064   -0.9600
     12 O12        -8.4590   -1.2848   66.6664 O.2     1  ZINC000451019064   -0.9500
     13 C13        -7.2332    1.0501   66.2607 C.3     1  ZINC000451019064   -0.6300
     14 C14        -6.2439    0.9868   67.4261 C.3     1  ZINC000451019064   -0.1100
     15 C15        -5.1524    2.0402   67.2263 C.3     1  ZINC000451019064   -0.0800
     16 C16        -4.6078    1.9460   65.7996 C.3     1  ZINC000451019064   -0.1200
     17 C17        -3.5163    2.9994   65.5997 C.3     1  ZINC000451019064   -0.1200
     18 C18        -4.1041    4.3930   65.8304 C.3     1  ZINC000451019064   -0.1200
     19 C19        -4.6486    4.4872   67.2571 C.3     1  ZINC000451019064   -0.1200
     20 C20        -5.7402    3.4338   67.4569 C.3     1  ZINC000451019064   -0.1200
     21 C21        -8.6479    1.4945   59.9572 C.3     1  ZINC000451019064    0.0200
     22 C22        -7.7823    0.8409   58.8768 C.3     1  ZINC000451019064    0.0900
     23 H23        -6.9382    0.3337   59.3441 H       1  ZINC000451019064    0.0700
     24 C24        -7.2655    1.9146   57.9171 C.3     1  ZINC000451019064   -0.1500
     25 O25        -8.5680   -0.1098   58.1527 O.3     1  ZINC000451019064   -0.3800
     26 H26        -9.3457   -2.5279   57.3397 H       1  ZINC000451019064    0.0700
     27 H27       -10.3970   -2.8628   58.7364 H       1  ZINC000451019064    0.0700
     28 H28       -10.7762   -1.5124   57.6406 H       1  ZINC000451019064    0.0600
     29 H29       -10.8395    0.0130   59.5857 H       1  ZINC000451019064    0.0400
     30 H30       -10.3839   -1.2850   60.7165 H       1  ZINC000451019064    0.0900
     31 H31       -10.3430    2.0296   61.6188 H       1  ZINC000451019064    0.0400
     32 H32       -10.8544    0.4028   62.1288 H       1  ZINC000451019064    0.0800
     33 H33        -8.0811    1.2342   62.8853 H       1  ZINC000451019064    0.0800
     34 H34        -9.4170    2.0552   63.7277 H       1  ZINC000451019064    0.0800
     35 H35       -10.1073   -0.7052   63.6200 H       1  ZINC000451019064    0.0800
     36 H36        -8.3996   -0.6318   64.1167 H       1  ZINC000451019064    0.0700
     37 H37       -10.6068    0.7649   65.5321 H       1  ZINC000451019064    0.4200
     38 H38        -6.7737    0.6208   65.3703 H       1  ZINC000451019064    0.1300
     39 H39        -7.5002    2.0889   66.0667 H       1  ZINC000451019064    0.1400
     40 H40        -6.7702    1.1817   68.3605 H       1  ZINC000451019064    0.0800
     41 H41        -5.7904   -0.0037   67.4643 H       1  ZINC000451019064    0.0800
     42 H42        -4.3439    1.8648   67.9360 H       1  ZINC000451019064    0.0800
     43 H43        -4.1891    0.9532   65.6353 H       1  ZINC000451019064    0.0600
     44 H44        -5.4163    2.1213   65.0898 H       1  ZINC000451019064    0.0700
     45 H45        -2.7079    2.8240   66.3095 H       1  ZINC000451019064    0.0600
     46 H46        -3.1284    2.9324   64.5833 H       1  ZINC000451019064    0.0600
     47 H47        -3.3265    5.1434   65.6880 H       1  ZINC000451019064    0.0600
     48 H48        -4.9125    4.5683   65.1206 H       1  ZINC000451019064    0.0600
     49 H49        -3.8402    4.3118   67.9669 H       1  ZINC000451019064    0.0600
     50 H50        -5.0674    5.4800   67.4214 H       1  ZINC000451019064    0.0600
     51 H51        -6.5487    3.6091   66.7472 H       1  ZINC000451019064    0.0700
     52 H52        -6.1281    3.5009   68.4733 H       1  ZINC000451019064    0.0600
     53 H53        -9.4617    2.0464   59.4870 H       1  ZINC000451019064    0.0400
     54 H54        -8.0379    2.1775   60.5484 H       1  ZINC000451019064    0.0900
     55 H55        -6.6691    2.6399   58.4706 H       1  ZINC000451019064    0.0700
     56 H56        -6.6494    1.4487   57.1482 H       1  ZINC000451019064    0.0700
     57 H57        -8.1101    2.4204   57.4490 H       1  ZINC000451019064    0.0600
@<TRIPOS>BOND
     1     1     2    1
     2     1    26    1
     3     1    27    1
     4     1    28    1
     5     2     3    1
     6     2    25    1
     7     2     4    1
     8     4     5    1
     9     4    29    1
    10     4    30    1
    11     5     6    1
    12     5    21    1
    13     6     7    1
    14     6    31    1
    15     6    32    1
    16     7     8    1
    17     7    33    1
    18     7    34    1
    19     8     9    1
    20     8    35    1
    21     8    36    1
    22     9    10   am
    23     9    37    1
    24    10    11    2
    25    10    12    2
    26    10    13    1
    27    13    14    1
    28    13    38    1
    29    13    39    1
    30    14    15    1
    31    14    40    1
    32    14    41    1
    33    15    20    1
    34    15    16    1
    35    15    42    1
    36    16    17    1
    37    16    43    1
    38    16    44    1
    39    17    18    1
    40    17    45    1
    41    17    46    1
    42    18    19    1
    43    18    47    1
    44    18    48    1
    45    19    20    1
    46    19    49    1
    47    19    50    1
    48    20    51    1
    49    20    52    1
    50    21    22    1
    51    21    53    1
    52    21    54    1
    53    22    23    1
    54    22    24    1
    55    22    25    1
    56    24    55    1
    57    24    56    1
    58    24    57    1
@<TRIPOS>SUBSTRUCTURE
     1 ZINC000451019064        1 TEMP              0 ****  ****    0 ROOT


##########                                Name:    ZINC000482846390
##########                DOCK_Rotatable_Bonds:                   9
##########                         Heavy_Atoms:                  30
##########                    Molecular_Weight:             420.469
##########                DOCK_Rotatable_Bonds:                   9
##########                       Formal_Charge:          -0.0100011
##########                     HBond_Acceptors:                  11
##########                        HBond_Donors:                   2
##########                         Heavy_Atoms:                  30
##########                          Grid_Score:          -32.374252
##########                     Grid_vdw_energy:          -30.380945
##########                      Grid_es_energy:           -1.993309
##########           Internal_energy_repulsive:           23.904831

@<TRIPOS>MOLECULE
ZINC000482846390
 58 60 1 0 0
SMALL
USER_CHARGES


@<TRIPOS>ATOM
      1 C1        -10.2728    5.0478   51.3311 C.3     1  ZINC000482846390   -0.1000
      2 C2         -8.9353    4.5642   50.8330 C.2     1  ZINC000482846390    0.0900
      3 C3         -8.2348    3.5139   51.3200 C.2     1  ZINC000482846390   -0.2700
      4 C4         -7.0527    3.4047   50.5804 C.2     1  ZINC000482846390    0.0700
      5 C5         -5.9758    2.3702   50.7831 C.3     1  ZINC000482846390   -0.0500
      6 C6         -4.7096    3.0484   51.3098 C.3     1  ZINC000482846390    0.1500
      7 H7         -4.6702    4.0758   50.9477 H       1  ZINC000482846390    0.1000
      8 C8         -3.4790    2.2858   50.8149 C.3     1  ZINC000482846390   -0.1700
      9 N9         -4.7283    3.0474   52.7747 N.am    1  ZINC000482846390   -0.6800
     10 C10        -5.2560    4.0923   53.4427 C.2     1  ZINC000482846390    0.5100
     11 O11        -5.7170    5.0332   52.8307 O.2     1  ZINC000482846390   -0.5200
     12 C12        -5.2735    4.0919   54.9371 C.2     1  ZINC000482846390    0.5100
     13 O13        -4.4452    4.7295   55.5537 O.2     1  ZINC000482846390   -0.5100
     14 N14        -6.2091    3.3837   55.6000 N.am    1  ZINC000482846390   -0.5900
     15 C15        -6.2421    3.3792   57.0693 C.3     1  ZINC000482846390    0.0500
     16 C16        -7.6367    3.8211   57.5296 C.3     1  ZINC000482846390    0.1000
     17 N17        -8.6426    3.0400   56.7962 N.am    1  ZINC000482846390   -0.6000
     18 C18        -9.5789    2.3326   57.4591 C.2     1  ZINC000482846390    0.5200
     19 O19       -10.4044    1.6915   56.8426 O.2     1  ZINC000482846390   -0.5000
     20 C20        -9.6005    2.3377   58.9535 C.2     1  ZINC000482846390    0.5200
     21 O21       -10.3111    3.1219   59.5473 O.2     1  ZINC000482846390   -0.5000
     22 N22        -8.8307    1.4714   59.6415 N.am    1  ZINC000482846390   -0.6000
     23 C23        -8.8397    1.4536   61.1129 C.3     1  ZINC000482846390    0.0700
     24 C24        -9.0576    0.0092   61.5776 C.3     1  ZINC000482846390    0.0500
     25 O25        -8.1018   -0.8402   60.9383 O.3     1  ZINC000482846390   -0.3700
     26 C26        -8.2176   -0.8836   59.5140 C.3     1  ZINC000482846390    0.0500
     27 C27        -7.9610    0.5113   58.9436 C.3     1  ZINC000482846390    0.0700
     28 C28        -8.6098    3.0445   55.3269 C.3     1  ZINC000482846390    0.0900
     29 C29        -7.2185    2.6071   54.8666 C.3     1  ZINC000482846390    0.0900
     30 N30        -7.0437    4.3554   49.6816 N.2     1  ZINC000482846390   -0.2800
     31 N31        -8.2241    5.0974   49.8176 N.pl3   1  ZINC000482846390   -0.4700
     32 H32       -11.0687    4.5366   50.7895 H       1  ZINC000482846390    0.0800
     33 H33       -10.3628    4.8343   52.3963 H       1  ZINC000482846390    0.0900
     34 H34       -10.3544    6.1224   51.1679 H       1  ZINC000482846390    0.0700
     35 H35        -8.5353    2.8732   52.1359 H       1  ZINC000482846390    0.1500
     36 H36        -6.3168    1.6272   51.5041 H       1  ZINC000482846390    0.0900
     37 H37        -5.7581    1.8816   49.8334 H       1  ZINC000482846390    0.1100
     38 H38        -3.4650    2.2866   49.7251 H       1  ZINC000482846390    0.0700
     39 H39        -2.5769    2.7690   51.1903 H       1  ZINC000482846390    0.0700
     40 H40        -3.5183    1.2585   51.1771 H       1  ZINC000482846390    0.0600
     41 H41        -4.3609    2.2947   53.2639 H       1  ZINC000482846390    0.4200
     42 H42        -6.0371    2.3737   57.4367 H       1  ZINC000482846390    0.0800
     43 H43        -5.4933    4.0717   57.4541 H       1  ZINC000482846390    0.1600
     44 H44        -7.7428    3.6414   58.5995 H       1  ZINC000482846390    0.1100
     45 H45        -7.7724    4.8819   57.3190 H       1  ZINC000482846390    0.0800
     46 H46        -7.8853    1.8207   61.4903 H       1  ZINC000482846390    0.0900
     47 H47        -9.6483    2.0842   61.4828 H       1  ZINC000482846390    0.0900
     48 H48        -8.9304   -0.0486   62.6586 H       1  ZINC000482846390    0.1100
     49 H49       -10.0649   -0.3111   61.3112 H       1  ZINC000482846390    0.0600
     50 H50        -7.4861   -1.5836   59.1105 H       1  ZINC000482846390    0.1100
     51 H51        -9.2218   -1.2070   59.2401 H       1  ZINC000482846390    0.0600
     52 H52        -8.1851    0.5187   57.8769 H       1  ZINC000482846390    0.1100
     53 H53        -6.9182    0.7866   59.1019 H       1  ZINC000482846390    0.0800
     54 H54        -9.3585    2.3521   54.9421 H       1  ZINC000482846390    0.0900
     55 H55        -8.8148    4.0501   54.9595 H       1  ZINC000482846390    0.0900
     56 H56        -7.1138    2.7874   53.7966 H       1  ZINC000482846390    0.1100
     57 H57        -7.0802    1.5466   55.0767 H       1  ZINC000482846390    0.0800
     58 H58        -8.4820    5.8631   49.2807 H       1  ZINC000482846390    0.4400
@<TRIPOS>BOND
     1     1     2    1
     2     1    32    1
     3     1    33    1
     4     1    34    1
     5     2    31    1
     6     2     3    2
     7     3     4    1
     8     3    35    1
     9     4     5    1
    10     4    30    2
    11     5     6    1
    12     5    36    1
    13     5    37    1
    14     6     7    1
    15     6     8    1
    16     6     9    1
    17     8    38    1
    18     8    39    1
    19     8    40    1
    20     9    10   am
    21     9    41    1
    22    10    11    2
    23    10    12    1
    24    12    13    2
    25    12    14   am
    26    14    29    1
    27    14    15    1
    28    15    16    1
    29    15    42    1
    30    15    43    1
    31    16    17    1
    32    16    44    1
    33    16    45    1
    34    17    18   am
    35    17    28    1
    36    18    19    2
    37    18    20    1
    38    20    21    2
    39    20    22   am
    40    22    27    1
    41    22    23    1
    42    23    24    1
    43    23    46    1
    44    23    47    1
    45    24    25    1
    46    24    48    1
    47    24    49    1
    48    25    26    1
    49    26    27    1
    50    26    50    1
    51    26    51    1
    52    27    52    1
    53    27    53    1
    54    28    29    1
    55    28    54    1
    56    28    55    1
    57    29    56    1
    58    29    57    1
    59    30    31    1
    60    31    58    1
@<TRIPOS>SUBSTRUCTURE
     1 ZINC000482846390        1 TEMP              0 ****  ****    0 ROOT


##########                                Name:    ZINC000603906271
##########                DOCK_Rotatable_Bonds:                   8
##########                         Heavy_Atoms:                  29
##########                    Molecular_Weight:             391.473
##########                DOCK_Rotatable_Bonds:                   8
##########                       Formal_Charge:           0.0499998
##########                     HBond_Acceptors:                   7
##########                        HBond_Donors:                   3
##########                         Heavy_Atoms:                  29
##########                          Grid_Score:          -32.369587
##########                     Grid_vdw_energy:          -32.626522
##########                      Grid_es_energy:            0.256937
##########           Internal_energy_repulsive:           25.668156

@<TRIPOS>MOLECULE
ZINC000603906271
 54 56 1 0 0
SMALL
USER_CHARGES


@<TRIPOS>ATOM
      1 C1         -1.7657    4.3853   58.2442 C.3     1  ZINC000603906271   -0.1600
      2 C2         -0.4254    3.7331   57.8990 C.3     1  ZINC000603906271    0.1300
      3 H3          0.3836    4.4340   58.1052 H       1  ZINC000603906271    0.1200
      4 N4         -0.2456    2.5272   58.7113 N.am    1  ZINC000603906271   -0.7100
      5 C5          0.9901    2.1535   59.0984 C.2     1  ZINC000603906271    0.5700
      6 O6          1.9555    2.8160   58.7722 O.2     1  ZINC000603906271   -0.5300
      7 C7          1.1714    0.9375   59.9196 C.ar    1  ZINC000603906271   -0.1400
      8 C8          2.4540    0.4520   60.1791 C.ar    1  ZINC000603906271   -0.0800
      9 C9          2.6164   -0.6829   60.9465 C.ar    1  ZINC000603906271   -0.1200
     10 C10         1.5112   -1.3398   61.4581 C.ar    1  ZINC000603906271   -0.0400
     11 C11         1.6961   -2.5792   62.2951 C.3     1  ZINC000603906271   -0.0400
     12 C12         2.9241   -3.3481   61.8034 C.3     1  ZINC000603906271   -0.1400
     13 C13         1.8961   -2.1809   63.7587 C.3     1  ZINC000603906271   -0.1500
     14 C14         0.4560   -3.4669   62.1730 C.3     1  ZINC000603906271   -0.1400
     15 C15         0.2371   -0.8634   61.2049 C.ar    1  ZINC000603906271   -0.1300
     16 C16         0.0612    0.2734   60.4434 C.ar    1  ZINC000603906271   -0.0500
     17 C17        -0.4086    3.3621   56.4385 C.2     1  ZINC000603906271    0.5100
     18 O18         0.1469    2.3462   56.0772 O.2     1  ZINC000603906271   -0.5100
     19 N19        -1.0108    4.1591   55.5338 N.am    1  ZINC000603906271   -0.6700
     20 C20        -0.9952    3.8146   54.1776 C.ar    1  ZINC000603906271    0.1300
     21 C21         0.1774    3.9383   53.4427 C.ar    1  ZINC000603906271   -0.1200
     22 C22         0.1966    3.5989   52.1030 C.ar    1  ZINC000603906271   -0.1000
     23 C23        -0.9489    3.1357   51.4876 C.ar    1  ZINC000603906271   -0.0900
     24 C24        -2.1298    3.0089   52.2170 C.ar    1  ZINC000603906271    0.0000
     25 C25        -3.3624    2.5115   51.5567 C.2     1  ZINC000603906271    0.2700
     26 N26        -3.4894    2.2385   50.2767 N.2     1  ZINC000603906271   -0.3000
     27 N27        -4.8099    1.8003   50.0863 N.pl3   1  ZINC000603906271   -0.4800
     28 C28        -5.4036    1.8397   51.2928 C.2     1  ZINC000603906271    0.2700
     29 N29        -4.5284    2.2608   52.1671 N.2     1  ZINC000603906271   -0.5300
     30 C30        -2.1486    3.3440   53.5679 C.ar    1  ZINC000603906271   -0.0800
     31 H31        -2.5746    3.6845   58.0380 H       1  ZINC000603906271    0.0700
     32 H32        -1.7778    4.6537   59.3006 H       1  ZINC000603906271    0.0800
     33 H33        -1.8994    5.2825   57.6398 H       1  ZINC000603906271    0.0700
     34 H34        -1.0159    1.9978   58.9706 H       1  ZINC000603906271    0.4100
     35 H35         3.3174    0.9633   59.7799 H       1  ZINC000603906271    0.1300
     36 H36         3.6082   -1.0598   61.1482 H       1  ZINC000603906271    0.1300
     37 H37         3.8076   -2.7158   61.8905 H       1  ZINC000603906271    0.0600
     38 H38         3.0579   -4.2446   62.4089 H       1  ZINC000603906271    0.0600
     39 H39         2.7816   -3.6319   60.7607 H       1  ZINC000603906271    0.0600
     40 H40         1.0213   -1.6332   64.1091 H       1  ZINC000603906271    0.0600
     41 H41         2.0299   -3.0775   64.3642 H       1  ZINC000603906271    0.0600
     42 H42         2.7796   -1.5486   63.8458 H       1  ZINC000603906271    0.0600
     43 H43         0.3136   -3.7506   61.1302 H       1  ZINC000603906271    0.0600
     44 H44         0.5898   -4.3633   62.7784 H       1  ZINC000603906271    0.0600
     45 H45        -0.4189   -2.9191   62.5232 H       1  ZINC000603906271    0.0600
     46 H46        -0.6214   -1.3806   61.6074 H       1  ZINC000603906271    0.1400
     47 H47        -0.9339    0.6445   60.2468 H       1  ZINC000603906271    0.1400
     48 H48        -1.4551    4.9715   55.8227 H       1  ZINC000603906271    0.4200
     49 H49         1.0761    4.3009   53.9195 H       1  ZINC000603906271    0.1300
     50 H50         1.1106    3.6969   51.5359 H       1  ZINC000603906271    0.1400
     51 H51        -0.9302    2.8719   50.4404 H       1  ZINC000603906271    0.1400
     52 H52        -5.2145    1.5238   49.2492 H       1  ZINC000603906271    0.4400
     53 H53        -6.4268    1.5656   51.5035 H       1  ZINC000603906271    0.2300
     54 H54        -3.0612    3.2474   54.1373 H       1  ZINC000603906271    0.1500
@<TRIPOS>BOND
     1     1     2    1
     2     1    31    1
     3     1    32    1
     4     1    33    1
     5     2     3    1
     6     2     4    1
     7     2    17    1
     8     4     5   am
     9     4    34    1
    10     5     6    2
    11     5     7    1
    12     7    16   ar
    13     7     8   ar
    14     8     9   ar
    15     8    35    1
    16     9    10   ar
    17     9    36    1
    18    10    11    1
    19    10    15   ar
    20    11    12    1
    21    11    13    1
    22    11    14    1
    23    12    37    1
    24    12    38    1
    25    12    39    1
    26    13    40    1
    27    13    41    1
    28    13    42    1
    29    14    43    1
    30    14    44    1
    31    14    45    1
    32    15    16   ar
    33    15    46    1
    34    16    47    1
    35    17    18    2
    36    17    19   am
    37    19    20    1
    38    19    48    1
    39    20    30   ar
    40    20    21   ar
    41    21    22   ar
    42    21    49    1
    43    22    23   ar
    44    22    50    1
    45    23    24   ar
    46    23    51    1
    47    24    25    1
    48    24    30   ar
    49    25    29    1
    50    25    26    2
    51    26    27    1
    52    27    28    1
    53    27    52    1
    54    28    29    2
    55    28    53    1
    56    30    54    1
@<TRIPOS>SUBSTRUCTURE
     1 ZINC000603906271        1 TEMP              0 ****  ****    0 ROOT


##########                                Name:    ZINC000429196987
##########                DOCK_Rotatable_Bonds:                   7
##########                         Heavy_Atoms:                  28
##########                    Molecular_Weight:             403.505
##########                DOCK_Rotatable_Bonds:                   7
##########                       Formal_Charge:          -0.0399997
##########                     HBond_Acceptors:                   9
##########                        HBond_Donors:                   1
##########                         Heavy_Atoms:                  28
##########                          Grid_Score:          -32.350983
##########                     Grid_vdw_energy:          -33.186157
##########                      Grid_es_energy:            0.835176
##########           Internal_energy_repulsive:           12.607574

@<TRIPOS>MOLECULE
ZINC000429196987
 53 55 1 0 0
SMALL
USER_CHARGES


@<TRIPOS>ATOM
      1 C1        -10.0667    2.2623   53.8990 C.3     1  ZINC000429196987    0.0800
      2 N2        -10.0393    3.0452   52.6610 N.am    1  ZINC000429196987   -0.6300
      3 C3        -11.2578    3.7038   52.1838 C.3     1  ZINC000429196987    0.1600
      4 C4        -12.0328    2.7531   51.3083 C.ar    1  ZINC000429196987   -0.0600
      5 C5        -11.8127    2.7349   49.9437 C.ar    1  ZINC000429196987   -0.1300
      6 C6        -12.5236    1.8627   49.1406 C.ar    1  ZINC000429196987   -0.0300
      7 C7        -13.4542    1.0087   49.7021 C.ar    1  ZINC000429196987   -0.6600
      8 S8        -14.3607   -0.1026   48.6783 S.o2    1  ZINC000429196987    2.5000
      9 C9        -15.1855    0.9676   47.4678 C.3     1  ZINC000429196987   -0.6500
     10 O10       -13.3617   -0.8917   48.0471 O.2     1  ZINC000429196987   -0.9400
     11 O11       -15.3125   -0.6897   49.5551 O.2     1  ZINC000429196987   -0.9400
     12 C12       -13.6733    1.0260   51.0668 C.ar    1  ZINC000429196987   -0.0300
     13 C13       -12.9597    1.8953   51.8705 C.ar    1  ZINC000429196987   -0.1100
     14 C14        -8.8932    3.1596   51.9612 C.2     1  ZINC000429196987    0.7100
     15 O15        -8.8702    3.8105   50.9346 O.2     1  ZINC000429196987   -0.5800
     16 N16        -7.7727    2.5524   52.3994 N.am    1  ZINC000429196987   -0.7400
     17 C17        -6.5272    2.6752   51.6378 C.3     1  ZINC000429196987    0.1600
     18 C18        -5.5468    3.5703   52.4009 C.3     1  ZINC000429196987   -0.1300
     19 C19        -4.2267    3.6456   51.6304 C.3     1  ZINC000429196987    0.0700
     20 N20        -3.6690    2.2956   51.4794 N.3     1  ZINC000429196987   -0.4700
     21 C21        -2.4061    2.3401   50.8992 C.ar    1  ZINC000429196987    0.2500
     22 C22        -1.3465    2.9464   51.5731 C.ar    1  ZINC000429196987   -0.1300
     23 C23        -0.1078    2.9644   50.9517 C.ar    1  ZINC000429196987   -0.1000
     24 C24         0.0019    2.3788   49.6983 C.ar    1  ZINC000429196987    0.0200
     25 N25        -1.0537    1.8270   49.1336 N.ar    1  ZINC000429196987   -0.2200
     26 N26        -2.2025    1.8018   49.7056 N.ar    1  ZINC000429196987   -0.2800
     27 C27        -4.5719    1.4312   50.7088 C.3     1  ZINC000429196987    0.0600
     28 C28        -5.9024    1.2898   51.4517 C.3     1  ZINC000429196987   -0.1200
     29 H29       -10.3176    1.2269   53.6687 H       1  ZINC000429196987    0.0600
     30 H30        -9.0870    2.3014   54.3754 H       1  ZINC000429196987    0.0700
     31 H31       -10.8157    2.6762   54.5742 H       1  ZINC000429196987    0.0800
     32 H32       -11.8713    3.9947   53.0365 H       1  ZINC000429196987    0.1000
     33 H33       -10.9903    4.5907   51.6093 H       1  ZINC000429196987    0.0900
     34 H34       -11.0856    3.4021   49.5050 H       1  ZINC000429196987    0.1300
     35 H35       -12.3522    1.8489   48.0744 H       1  ZINC000429196987    0.1400
     36 H36       -14.4361    1.5220   46.9029 H       1  ZINC000429196987    0.1300
     37 H37       -15.7762    0.3564   46.7856 H       1  ZINC000429196987    0.1300
     38 H38       -15.8397    1.6674   47.9879 H       1  ZINC000429196987    0.1300
     39 H39       -14.4002    0.3584   51.5057 H       1  ZINC000429196987    0.1400
     40 H40       -13.1309    1.9089   52.9367 H       1  ZINC000429196987    0.1400
     41 H41        -7.7907    2.0340   53.2191 H       1  ZINC000429196987    0.4000
     42 H42        -6.7385    3.1135   50.6623 H       1  ZINC000429196987    0.0900
     43 H43        -5.9684    4.5707   52.4992 H       1  ZINC000429196987    0.0800
     44 H44        -5.3670    3.1517   53.3910 H       1  ZINC000429196987    0.0700
     45 H45        -4.4051    4.0771   50.6455 H       1  ZINC000429196987    0.0600
     46 H46        -3.5216    4.2706   52.1783 H       1  ZINC000429196987    0.0900
     47 H47        -1.4868    3.3883   52.5485 H       1  ZINC000429196987    0.1500
     48 H48         0.7468    3.4211   51.4285 H       1  ZINC000429196987    0.1500
     49 H49         0.9523    2.3753   49.1853 H       1  ZINC000429196987    0.1700
     50 H50        -4.7486    1.8731   49.7282 H       1  ZINC000429196987    0.0500
     51 H51        -4.1176    0.4478   50.5873 H       1  ZINC000429196987    0.0900
     52 H52        -5.7282    0.8352   52.4269 H       1  ZINC000429196987    0.0800
     53 H53        -6.5779    0.6608   50.8719 H       1  ZINC000429196987    0.0800
@<TRIPOS>BOND
     1     1     2    1
     2     1    29    1
     3     1    30    1
     4     1    31    1
     5     2     3    1
     6     2    14   am
     7     3     4    1
     8     3    32    1
     9     3    33    1
    10     4    13   ar
    11     4     5   ar
    12     5     6   ar
    13     5    34    1
    14     6     7   ar
    15     6    35    1
    16     7     8    1
    17     7    12   ar
    18     8     9    1
    19     8    10    2
    20     8    11    2
    21     9    36    1
    22     9    37    1
    23     9    38    1
    24    12    13   ar
    25    12    39    1
    26    13    40    1
    27    14    15    2
    28    14    16   am
    29    16    17    1
    30    16    41    1
    31    17    28    1
    32    17    18    1
    33    17    42    1
    34    18    19    1
    35    18    43    1
    36    18    44    1
    37    19    20    1
    38    19    45    1
    39    19    46    1
    40    20    21    1
    41    20    27    1
    42    21    26   ar
    43    21    22   ar
    44    22    23   ar
    45    22    47    1
    46    23    24   ar
    47    23    48    1
    48    24    25   ar
    49    24    49    1
    50    25    26   ar
    51    27    28    1
    52    27    50    1
    53    27    51    1
    54    28    52    1
    55    28    53    1
@<TRIPOS>SUBSTRUCTURE
     1 ZINC000429196987        1 TEMP              0 ****  ****    0 ROOT


##########                                Name:    ZINC000642096826
##########                DOCK_Rotatable_Bonds:                  12
##########                         Heavy_Atoms:                  25
##########                    Molecular_Weight:             345.485
##########                DOCK_Rotatable_Bonds:                  12
##########                       Formal_Charge:          0.00999919
##########                     HBond_Acceptors:                   5
##########                        HBond_Donors:                   1
##########                         Heavy_Atoms:                  25
##########                          Grid_Score:          -32.319183
##########                     Grid_vdw_energy:          -32.558926
##########                      Grid_es_energy:            0.239741
##########           Internal_energy_repulsive:           21.152891

@<TRIPOS>MOLECULE
ZINC000642096826
 56 57 1 0 0
SMALL
USER_CHARGES


@<TRIPOS>ATOM
      1 C1         -8.8557    1.5371   59.3305 C.3     1  ZINC000642096826   -0.1500
      2 C2         -8.6278    2.2758   58.0101 C.3     1  ZINC000642096826   -0.1400
      3 C3         -7.5212    1.5760   57.2185 C.3     1  ZINC000642096826    0.1200
      4 N4         -7.2990    2.2867   55.9570 N.am    1  ZINC000642096826   -0.6200
      5 C5         -6.3973    3.4406   55.9154 C.3     1  ZINC000642096826    0.1100
      6 C6         -5.3067    3.2743   56.9755 C.3     1  ZINC000642096826   -0.1400
      7 C7         -4.2369    4.3504   56.7799 C.3     1  ZINC000642096826   -0.1500
      8 C8         -7.9239    1.8790   54.8346 C.2     1  ZINC000642096826    0.5200
      9 O9         -8.6715    0.9247   54.8694 O.2     1  ZINC000642096826   -0.5200
     10 C10        -7.6938    2.6092   53.5364 C.3     1  ZINC000642096826    0.0400
     11 N11        -6.4727    2.1001   52.8981 N.3     1  ZINC000642096826   -0.5200
     12 C12        -6.6098    0.6773   52.5592 C.3     1  ZINC000642096826    0.0100
     13 C13        -6.1296    2.8935   51.7103 C.3     1  ZINC000642096826    0.0900
     14 C14        -4.6427    2.8272   51.4743 C.ar    1  ZINC000642096826   -0.0500
     15 C15        -4.1572    2.3547   50.2680 C.ar    1  ZINC000642096826   -0.1000
     16 C16        -2.7971    2.2909   50.0457 C.ar    1  ZINC000642096826   -0.0600
     17 C17        -1.9103    2.7048   51.0410 C.ar    1  ZINC000642096826   -0.1400
     18 C18        -0.4516    2.6397   50.8095 C.2     1  ZINC000642096826    0.5600
     19 O19         0.3158    3.0946   51.6351 O.2     1  ZINC000642096826   -0.5300
     20 N20         0.0274    2.0758   49.6829 N.am    1  ZINC000642096826   -0.7000
     21 C21         1.4729    2.0127   49.4527 C.3     1  ZINC000642096826    0.0800
     22 C22         2.2036    0.7424   49.8923 C.3     1  ZINC000642096826   -0.1900
     23 C23         1.9786    1.0195   48.4045 C.3     1  ZINC000642096826   -0.1900
     24 C24        -2.4067    3.1808   52.2555 C.ar    1  ZINC000642096826   -0.0900
     25 C25        -3.7691    3.2442   52.4629 C.ar    1  ZINC000642096826   -0.1200
     26 H26        -9.1511    0.5082   59.1250 H       1  ZINC000642096826    0.0600
     27 H27        -7.9343    1.5412   59.9127 H       1  ZINC000642096826    0.0600
     28 H28        -9.6440    2.0357   59.8944 H       1  ZINC000642096826    0.0600
     29 H29        -9.5493    2.2717   57.4278 H       1  ZINC000642096826    0.0600
     30 H30        -8.3325    3.3047   58.2156 H       1  ZINC000642096826    0.0600
     31 H31        -6.6010    1.5761   57.8027 H       1  ZINC000642096826    0.0800
     32 H32        -7.8186    0.5484   57.0091 H       1  ZINC000642096826    0.0800
     33 H33        -5.9381    3.5076   54.9291 H       1  ZINC000642096826    0.0800
     34 H34        -6.9626    4.3509   56.1154 H       1  ZINC000642096826    0.0800
     35 H35        -5.7463    3.3750   57.9678 H       1  ZINC000642096826    0.0700
     36 H36        -4.8524    2.2883   56.8778 H       1  ZINC000642096826    0.0700
     37 H37        -3.4600    4.2318   57.5351 H       1  ZINC000642096826    0.0600
     38 H38        -3.7974    4.2496   55.7875 H       1  ZINC000642096826    0.0600
     39 H39        -4.6913    5.3364   56.8776 H       1  ZINC000642096826    0.0600
     40 H40        -8.5442    2.4488   52.8738 H       1  ZINC000642096826    0.0600
     41 H41        -7.5831    3.6753   53.7341 H       1  ZINC000642096826    0.1000
     42 H42        -7.4446    0.5466   51.8707 H       1  ZINC000642096826    0.0200
     43 H43        -5.6918    0.3260   52.0881 H       1  ZINC000642096826    0.0700
     44 H44        -6.7945    0.1036   53.4674 H       1  ZINC000642096826    0.0900
     45 H45        -6.6534    2.4932   50.8423 H       1  ZINC000642096826    0.0500
     46 H46        -6.4266    3.9304   51.8678 H       1  ZINC000642096826    0.0900
     47 H47        -4.8444    2.0347   49.4987 H       1  ZINC000642096826    0.1300
     48 H48        -2.4193    1.9212   49.1039 H       1  ZINC000642096826    0.1400
     49 H49        -0.5849    1.7116   49.0247 H       1  ZINC000642096826    0.4000
     50 H50         2.0058    2.9588   49.5479 H       1  ZINC000642096826    0.1400
     51 H51         3.2174    0.8525   50.2771 H       1  ZINC000642096826    0.1000
     52 H52         1.6088   -0.0465   50.3529 H       1  ZINC000642096826    0.1000
     53 H53         1.2358    0.4129   47.8863 H       1  ZINC000642096826    0.1000
     54 H54         2.8444    1.3119   47.8104 H       1  ZINC000642096826    0.1100
     55 H55        -1.7258    3.5022   53.0297 H       1  ZINC000642096826    0.1200
     56 H56        -4.1545    3.6127   53.4021 H       1  ZINC000642096826    0.1300
@<TRIPOS>BOND
     1     1     2    1
     2     1    26    1
     3     1    27    1
     4     1    28    1
     5     2     3    1
     6     2    29    1
     7     2    30    1
     8     3     4    1
     9     3    31    1
    10     3    32    1
    11     4     5    1
    12     4     8   am
    13     5     6    1
    14     5    33    1
    15     5    34    1
    16     6     7    1
    17     6    35    1
    18     6    36    1
    19     7    37    1
    20     7    38    1
    21     7    39    1
    22     8     9    2
    23     8    10    1
    24    10    11    1
    25    10    40    1
    26    10    41    1
    27    11    12    1
    28    11    13    1
    29    12    42    1
    30    12    43    1
    31    12    44    1
    32    13    14    1
    33    13    45    1
    34    13    46    1
    35    14    25   ar
    36    14    15   ar
    37    15    16   ar
    38    15    47    1
    39    16    17   ar
    40    16    48    1
    41    17    18    1
    42    17    24   ar
    43    18    19    2
    44    18    20   am
    45    20    21    1
    46    20    49    1
    47    21    23    1
    48    21    22    1
    49    21    50    1
    50    22    23    1
    51    22    51    1
    52    22    52    1
    53    23    53    1
    54    23    54    1
    55    24    25   ar
    56    24    55    1
    57    25    56    1
@<TRIPOS>SUBSTRUCTURE
     1 ZINC000642096826        1 TEMP              0 ****  ****    0 ROOT


##########                                Name:    ZINC000498646479
##########                DOCK_Rotatable_Bonds:                   7
##########                         Heavy_Atoms:                  29
##########                    Molecular_Weight:              407.58
##########                DOCK_Rotatable_Bonds:                   7
##########                       Formal_Charge:          -0.0199997
##########                     HBond_Acceptors:                   5
##########                        HBond_Donors:                   0
##########                         Heavy_Atoms:                  29
##########                          Grid_Score:          -32.308205
##########                     Grid_vdw_energy:          -32.733528
##########                      Grid_es_energy:            0.425322
##########           Internal_energy_repulsive:           25.270775

@<TRIPOS>MOLECULE
ZINC000498646479
 58 61 1 0 0
SMALL
USER_CHARGES


@<TRIPOS>ATOM
      1 C1          0.5904   -0.3535   63.1615 C.3     1  ZINC000498646479   -0.1500
      2 C2          0.1201   -0.4773   61.7108 C.3     1  ZINC000498646479   -0.0600
      3 C3         -0.0829    0.8983   61.1296 C.2     1  ZINC000498646479   -0.1700
      4 C4         -0.6219    1.9338   61.7749 C.2     1  ZINC000498646479   -0.1400
      5 C5         -0.7061    3.1015   61.0363 C.2     1  ZINC000498646479   -0.1300
      6 C6         -0.2354    3.0142   59.7912 C.2     1  ZINC000498646479   -0.1900
      7 C7         -0.2126    4.1404   58.7902 C.3     1  ZINC000498646479    0.1300
      8 N8         -0.8473    3.6985   57.5413 N.3     1  ZINC000498646479   -0.5300
      9 C9         -0.3183    4.4421   56.3901 C.3     1  ZINC000498646479    0.0400
     10 C10        -0.8672    3.8320   55.0960 C.3     1  ZINC000498646479    0.1200
     11 N11        -2.3346    3.7872   55.1865 N.am    1  ZINC000498646479   -0.6100
     12 C12        -3.1040    4.2905   54.2010 C.2     1  ZINC000498646479    0.5200
     13 O13        -2.5878    4.7887   53.2230 O.2     1  ZINC000498646479   -0.5400
     14 C14        -4.6057    4.2342   54.3142 C.3     1  ZINC000498646479   -0.1000
     15 H15        -4.9043    3.2623   54.7072 H       1  ZINC000498646479    0.0900
     16 C16        -5.0876    5.3365   55.2594 C.3     1  ZINC000498646479   -0.1500
     17 C17        -5.2293    4.4389   52.9321 C.3     1  ZINC000498646479   -0.0600
     18 C18        -5.1857    3.1428   52.1644 C.ar    1  ZINC000498646479   -0.1200
     19 C19        -6.1296    2.1299   52.4126 C.ar    1  ZINC000498646479   -0.0200
     20 C20        -7.1436    2.2711   53.3710 C.ar    1  ZINC000498646479   -0.1200
     21 C21        -8.0286    1.2540   53.5653 C.ar    1  ZINC000498646479   -0.1000
     22 C22        -7.9416    0.0751   52.8269 C.ar    1  ZINC000498646479   -0.1200
     23 C23        -6.9702   -0.0966   51.8882 C.ar    1  ZINC000498646479   -0.0900
     24 C24        -6.0402    0.9300   51.6596 C.ar    1  ZINC000498646479   -0.1100
     25 C25        -5.0175    0.8106   50.7052 C.ar    1  ZINC000498646479    0.1400
     26 N26        -4.1713    1.7980   50.5265 N.ar    1  ZINC000498646479   -0.4800
     27 C27        -4.2351    2.9309   51.2122 C.ar    1  ZINC000498646479    0.0800
     28 C28        -2.9400    3.1785   56.3806 C.3     1  ZINC000498646479    0.1100
     29 C29        -2.3093    3.8142   57.6241 C.3     1  ZINC000498646479    0.0400
     30 S30         0.3620    1.3858   59.4993 S.3     1  ZINC000498646479    0.1300
     31 H31         0.7373   -1.3484   63.5820 H       1  ZINC000498646479    0.0600
     32 H32         1.5310    0.1966   63.1928 H       1  ZINC000498646479    0.0600
     33 H33        -0.1617    0.1793   63.7432 H       1  ZINC000498646479    0.0600
     34 H34         0.8723   -1.0101   61.1292 H       1  ZINC000498646479    0.0800
     35 H35        -0.8204   -1.0274   61.6796 H       1  ZINC000498646479    0.0700
     36 H36        -0.9670    1.8662   62.7960 H       1  ZINC000498646479    0.1400
     37 H37        -1.1219    4.0140   61.4375 H       1  ZINC000498646479    0.1300
     38 H38        -0.7573    4.9948   59.1921 H       1  ZINC000498646479    0.0900
     39 H39         0.8196    4.4287   58.5910 H       1  ZINC000498646479    0.0500
     40 H40        -0.6251    5.4856   56.4590 H       1  ZINC000498646479    0.0400
     41 H41         0.7701    4.3820   56.3874 H       1  ZINC000498646479    0.1000
     42 H42        -0.5713    4.4476   54.2467 H       1  ZINC000498646479    0.1000
     43 H43        -0.4770    2.8216   54.9733 H       1  ZINC000498646479    0.0800
     44 H44        -6.1635    5.2436   55.4074 H       1  ZINC000498646479    0.0700
     45 H45        -4.5792    5.2403   56.2189 H       1  ZINC000498646479    0.0600
     46 H46        -4.8633    6.3109   54.8256 H       1  ZINC000498646479    0.0700
     47 H47        -6.2649    4.7598   53.0447 H       1  ZINC000498646479    0.0900
     48 H48        -4.6695    5.2011   52.3902 H       1  ZINC000498646479    0.0800
     49 H49        -7.2221    3.1790   53.9506 H       1  ZINC000498646479    0.1400
     50 H50        -8.8096    1.3625   54.3033 H       1  ZINC000498646479    0.1300
     51 H51        -8.6562   -0.7154   53.0022 H       1  ZINC000498646479    0.1300
     52 H52        -6.9154   -1.0157   51.3239 H       1  ZINC000498646479    0.1300
     53 H53        -4.9270   -0.0922   50.1194 H       1  ZINC000498646479    0.1600
     54 H54        -3.5074    3.7045   51.0162 H       1  ZINC000498646479    0.1500
     55 H55        -4.0144    3.3620   56.3805 H       1  ZINC000498646479    0.0900
     56 H56        -2.7490    2.1053   56.3813 H       1  ZINC000498646479    0.0800
     57 H57        -2.6651    3.2989   58.5163 H       1  ZINC000498646479    0.0900
     58 H58        -2.5885    4.8666   57.6757 H       1  ZINC000498646479    0.0400
@<TRIPOS>BOND
     1     1     2    1
     2     1    31    1
     3     1    32    1
     4     1    33    1
     5     2     3    1
     6     2    34    1
     7     2    35    1
     8     3    30    1
     9     3     4    2
    10     4     5    1
    11     4    36    1
    12     5     6    2
    13     5    37    1
    14     6     7    1
    15     6    30    1
    16     7     8    1
    17     7    38    1
    18     7    39    1
    19     8    29    1
    20     8     9    1
    21     9    10    1
    22     9    40    1
    23     9    41    1
    24    10    11    1
    25    10    42    1
    26    10    43    1
    27    11    12   am
    28    11    28    1
    29    12    13    2
    30    12    14    1
    31    14    15    1
    32    14    16    1
    33    14    17    1
    34    16    44    1
    35    16    45    1
    36    16    46    1
    37    17    18    1
    38    17    47    1
    39    17    48    1
    40    18    27   ar
    41    18    19   ar
    42    19    24   ar
    43    19    20   ar
    44    20    21   ar
    45    20    49    1
    46    21    22   ar
    47    21    50    1
    48    22    23   ar
    49    22    51    1
    50    23    24   ar
    51    23    52    1
    52    24    25   ar
    53    25    26   ar
    54    25    53    1
    55    26    27   ar
    56    27    54    1
    57    28    29    1
    58    28    55    1
    59    28    56    1
    60    29    57    1
    61    29    58    1
@<TRIPOS>SUBSTRUCTURE
     1 ZINC000498646479        1 TEMP              0 ****  ****    0 ROOT


##########                                Name:    ZINC000995593866
##########                DOCK_Rotatable_Bonds:                   7
##########                         Heavy_Atoms:                  24
##########                    Molecular_Weight:             342.389
##########                DOCK_Rotatable_Bonds:                   7
##########                       Formal_Charge:                0.03
##########                     HBond_Acceptors:                   8
##########                        HBond_Donors:                   1
##########                         Heavy_Atoms:                  24
##########                          Grid_Score:          -32.284004
##########                     Grid_vdw_energy:          -31.108467
##########                      Grid_es_energy:           -1.175538
##########           Internal_energy_repulsive:            8.803029

@<TRIPOS>MOLECULE
ZINC000995593866
 48 50 1 0 0
SMALL
USER_CHARGES


@<TRIPOS>ATOM
      1 C1         -7.7207    4.1843   50.7887 C.3     1  ZINC000995593866   -0.1400
      2 C2         -6.6829    3.6226   51.7626 C.3     1  ZINC000995593866   -0.0800
      3 C3         -5.7381    4.7317   52.2296 C.3     1  ZINC000995593866   -0.1400
      4 C4         -7.3822    2.9655   52.9721 C.3     1  ZINC000995593866    0.1200
      5 N5         -7.4654    1.5288   52.6205 N.am    1  ZINC000995593866   -0.6300
      6 C6         -8.4873    0.6798   52.8481 C.2     1  ZINC000995593866    0.5400
      7 O7         -8.4038   -0.4777   52.4959 O.2     1  ZINC000995593866   -0.5300
      8 C8         -9.7333    1.1690   53.5402 C.3     1  ZINC000995593866   -0.1300
      9 C9        -10.6032   -0.0277   53.9302 C.3     1  ZINC000995593866   -0.1000
     10 C10       -10.1903   -0.6823   55.2591 C.3     1  ZINC000995593866   -0.1300
     11 C11       -11.6907   -0.8309   55.5616 C.3     1  ZINC000995593866   -0.1400
     12 C12       -11.9180    0.3664   54.6237 C.3     1  ZINC000995593866   -0.1400
     13 C13        -6.1709    1.2369   51.9622 C.3     1  ZINC000995593866    0.1100
     14 C14        -5.8842    2.4828   51.0967 C.3     1  ZINC000995593866    0.0800
     15 H15        -6.2312    2.3231   50.0759 H       1  ZINC000995593866    0.0700
     16 N16        -4.4478    2.7906   51.1046 N.3     1  ZINC000995593866   -0.6800
     17 C17        -3.6997    1.8329   50.2793 C.3     1  ZINC000995593866    0.1500
     18 C18        -2.2274    2.1441   50.3586 C.2     1  ZINC000995593866    0.1900
     19 N19        -1.6052    2.7285   51.3541 N.2     1  ZINC000995593866   -0.4300
     20 C20        -0.3136    2.7950   50.9849 C.2     1  ZINC000995593866    0.0900
     21 C21         0.8153    3.3839   51.7910 C.3     1  ZINC000995593866    0.3800
     22 F22         2.0064    2.7195   51.4799 F       1  ZINC000995593866   -0.1800
     23 F23         0.9462    4.7430   51.4865 F       1  ZINC000995593866   -0.1700
     24 N24        -0.2180    2.2577   49.8056 N.2     1  ZINC000995593866   -0.3400
     25 O25        -1.3052    1.8722   49.4304 O.3     1  ZINC000995593866    0.1000
     26 H26        -8.4094    3.3921   50.4949 H       1  ZINC000995593866    0.0600
     27 H27        -8.2760    4.9875   51.2730 H       1  ZINC000995593866    0.0600
     28 H28        -7.2160    4.5734   49.9044 H       1  ZINC000995593866    0.0600
     29 H29        -6.3137    5.5165   52.7205 H       1  ZINC000995593866    0.0700
     30 H30        -5.0130    4.3198   52.9315 H       1  ZINC000995593866    0.0700
     31 H31        -5.2146    5.1491   51.3695 H       1  ZINC000995593866    0.0600
     32 H32        -6.7874    3.1020   53.8753 H       1  ZINC000995593866    0.0800
     33 H33        -8.3803    3.3824   53.1065 H       1  ZINC000995593866    0.0900
     34 H34        -9.4569    1.7246   54.4363 H       1  ZINC000995593866    0.0900
     35 H35       -10.2914    1.8197   52.8669 H       1  ZINC000995593866    0.0900
     36 H36       -10.7358   -0.7384   53.1145 H       1  ZINC000995593866    0.1000
     37 H37        -9.6737   -1.6341   55.1349 H       1  ZINC000995593866    0.0700
     38 H38        -9.6731   -0.0041   55.9378 H       1  ZINC000995593866    0.0800
     39 H39       -12.1204   -1.7621   55.1928 H       1  ZINC000995593866    0.0800
     40 H40       -11.9490   -0.6266   56.6007 H       1  ZINC000995593866    0.0700
     41 H41       -11.8732    1.3314   55.1287 H       1  ZINC000995593866    0.0800
     42 H42       -12.7962    0.2614   53.9866 H       1  ZINC000995593866    0.0700
     43 H43        -5.3869    1.1033   52.7077 H       1  ZINC000995593866    0.0900
     44 H44        -6.2551    0.3495   51.3348 H       1  ZINC000995593866    0.0800
     45 H45        -4.2794    3.7380   50.8015 H       1  ZINC000995593866    0.3600
     46 H46        -3.8775    0.8216   50.6448 H       1  ZINC000995593866    0.1200
     47 H47        -4.0317    1.9086   49.2439 H       1  ZINC000995593866    0.0800
     48 H48         0.6017    3.2685   52.8536 H       1  ZINC000995593866    0.1500
@<TRIPOS>BOND
     1     1     2    1
     2     1    26    1
     3     1    27    1
     4     1    28    1
     5     2    14    1
     6     2     3    1
     7     2     4    1
     8     3    29    1
     9     3    30    1
    10     3    31    1
    11     4     5    1
    12     4    32    1
    13     4    33    1
    14     5     6   am
    15     5    13    1
    16     6     7    2
    17     6     8    1
    18     8     9    1
    19     8    34    1
    20     8    35    1
    21     9    12    1
    22     9    10    1
    23     9    36    1
    24    10    11    1
    25    10    37    1
    26    10    38    1
    27    11    12    1
    28    11    39    1
    29    11    40    1
    30    12    41    1
    31    12    42    1
    32    13    14    1
    33    13    43    1
    34    13    44    1
    35    14    15    1
    36    14    16    1
    37    16    17    1
    38    16    45    1
    39    17    18    1
    40    17    46    1
    41    17    47    1
    42    18    25    1
    43    18    19    2
    44    19    20    1
    45    20    21    1
    46    20    24    2
    47    21    22    1
    48    21    23    1
    49    21    48    1
    50    24    25    1
@<TRIPOS>SUBSTRUCTURE
     1 ZINC000995593866        1 TEMP              0 ****  ****    0 ROOT


##########                                Name:    ZINC001105793963
##########                DOCK_Rotatable_Bonds:                   9
##########                         Heavy_Atoms:                  24
##########                    Molecular_Weight:             337.422
##########                DOCK_Rotatable_Bonds:                   9
##########                       Formal_Charge:          -0.0100003
##########                     HBond_Acceptors:                   8
##########                        HBond_Donors:                   2
##########                         Heavy_Atoms:                  24
##########                          Grid_Score:          -32.283051
##########                     Grid_vdw_energy:          -32.402218
##########                      Grid_es_energy:            0.119167
##########           Internal_energy_repulsive:            9.260676

@<TRIPOS>MOLECULE
ZINC001105793963
 51 52 1 0 0
SMALL
USER_CHARGES


@<TRIPOS>ATOM
      1 C1          2.3981    0.1723   49.2580 C.3     1  ZINC001105793963   -0.1500
      2 C2          2.4431    1.6781   49.5255 C.3     1  ZINC001105793963   -0.0300
      3 C3          1.0815    2.1512   49.9650 C.2     1  ZINC001105793963    0.1800
      4 N4         -0.0731    1.6306   49.6255 N.2     1  ZINC001105793963   -0.4800
      5 C5         -1.0033    2.3742   50.2506 C.2     1  ZINC001105793963    0.1700
      6 C6         -2.4960    2.1786   50.1812 C.3     1  ZINC001105793963    0.1500
      7 N7         -3.1393    2.9294   51.2678 N.3     1  ZINC001105793963   -0.6900
      8 C8         -4.5825    3.0662   51.0305 C.3     1  ZINC001105793963    0.0700
      9 C9         -5.3519    2.3224   52.1240 C.3     1  ZINC001105793963   -0.1000
     10 H10        -4.6647    1.9530   52.8853 H       1  ZINC001105793963    0.1000
     11 C11        -6.1561    1.1540   51.5145 C.3     1  ZINC001105793963    0.1100
     12 N12        -7.4207    1.1280   52.2857 N.am    1  ZINC001105793963   -0.6200
     13 C13        -8.1044    0.0494   52.7165 C.2     1  ZINC001105793963    0.5300
     14 O14        -7.6899   -1.0655   52.4799 O.2     1  ZINC001105793963   -0.5300
     15 C15        -9.3840    0.2288   53.4921 C.3     1  ZINC001105793963    0.1300
     16 H16        -9.2912    1.0916   54.1517 H       1  ZINC001105793963    0.1100
     17 C17       -10.5431    0.4531   52.5189 C.3     1  ZINC001105793963   -0.1600
     18 N18        -9.6428   -0.9713   54.2915 N.am    1  ZINC001105793963   -0.7200
     19 C19       -10.4217   -0.8952   55.3887 C.2     1  ZINC001105793963    0.5200
     20 C20       -10.6864   -2.1293   56.2121 C.3     1  ZINC001105793963   -0.1700
     21 O21       -10.9096    0.1666   55.7135 O.2     1  ZINC001105793963   -0.5500
     22 C22        -7.7633    2.5568   52.4761 C.3     1  ZINC001105793963    0.1000
     23 C23        -6.4096    3.2482   52.7600 C.3     1  ZINC001105793963   -0.1000
     24 H24        -6.3815    4.2324   52.2926 H       1  ZINC001105793963    0.0900
     25 C25        -6.1803    3.3696   54.2679 C.3     1  ZINC001105793963   -0.1500
     26 N26        -0.3785    3.2919   50.9258 N.2     1  ZINC001105793963   -0.3700
     27 O27         0.8202    3.1777   50.7798 O.3     1  ZINC001105793963    0.0800
     28 H28         2.1089   -0.3502   50.1698 H       1  ZINC001105793963    0.0600
     29 H29         1.6705   -0.0358   48.4736 H       1  ZINC001105793963    0.0600
     30 H30         3.3830   -0.1699   48.9400 H       1  ZINC001105793963    0.0800
     31 H31         3.1708    1.8861   50.3098 H       1  ZINC001105793963    0.1100
     32 H32         2.7324    2.2006   48.6136 H       1  ZINC001105793963    0.1000
     33 H33        -2.8655    2.5398   49.2215 H       1  ZINC001105793963    0.1000
     34 H34        -2.7287    1.1187   50.2845 H       1  ZINC001105793963    0.0700
     35 H35        -2.9591    2.4975   52.1617 H       1  ZINC001105793963    0.3500
     36 H36        -4.8552    4.1213   51.0479 H       1  ZINC001105793963    0.0800
     37 H37        -4.8326    2.6423   50.0579 H       1  ZINC001105793963    0.0400
     38 H38        -6.3579    1.3410   50.4598 H       1  ZINC001105793963    0.0700
     39 H39        -5.6160    0.2153   51.6384 H       1  ZINC001105793963    0.0900
     40 H40       -11.4687    0.5827   53.0799 H       1  ZINC001105793963    0.0800
     41 H41       -10.3505    1.3459   51.9241 H       1  ZINC001105793963    0.0800
     42 H42       -10.6359   -0.4098   51.8594 H       1  ZINC001105793963    0.0600
     43 H43        -9.2535   -1.8208   54.0310 H       1  ZINC001105793963    0.4100
     44 H44       -10.1687   -2.9799   55.7686 H       1  ZINC001105793963    0.0800
     45 H45       -10.3240   -1.9729   57.2280 H       1  ZINC001105793963    0.1000
     46 H46       -11.7579   -2.3279   56.2348 H       1  ZINC001105793963    0.1000
     47 H47        -8.2161    2.9628   51.5716 H       1  ZINC001105793963    0.0800
     48 H48        -8.4356    2.6765   53.3255 H       1  ZINC001105793963    0.0900
     49 H49        -6.1984    2.3776   54.7192 H       1  ZINC001105793963    0.0600
     50 H50        -5.2119    3.8349   54.4518 H       1  ZINC001105793963    0.0600
     51 H51        -6.9673    3.9828   54.7068 H       1  ZINC001105793963    0.0600
@<TRIPOS>BOND
     1     1     2    1
     2     1    28    1
     3     1    29    1
     4     1    30    1
     5     2     3    1
     6     2    31    1
     7     2    32    1
     8     3    27    1
     9     3     4    2
    10     4     5    1
    11     5     6    1
    12     5    26    2
    13     6     7    1
    14     6    33    1
    15     6    34    1
    16     7     8    1
    17     7    35    1
    18     8     9    1
    19     8    36    1
    20     8    37    1
    21     9    10    1
    22     9    23    1
    23     9    11    1
    24    11    12    1
    25    11    38    1
    26    11    39    1
    27    12    13   am
    28    12    22    1
    29    13    14    2
    30    13    15    1
    31    15    16    1
    32    15    17    1
    33    15    18    1
    34    17    40    1
    35    17    41    1
    36    17    42    1
    37    18    19   am
    38    18    43    1
    39    19    20    1
    40    19    21    2
    41    20    44    1
    42    20    45    1
    43    20    46    1
    44    22    23    1
    45    22    47    1
    46    22    48    1
    47    23    24    1
    48    23    25    1
    49    25    49    1
    50    25    50    1
    51    25    51    1
    52    26    27    1
@<TRIPOS>SUBSTRUCTURE
     1 ZINC001105793963        1 TEMP              0 ****  ****    0 ROOT


##########                                Name:    ZINC000751548479
##########                DOCK_Rotatable_Bonds:                   9
##########                         Heavy_Atoms:                  27
##########                    Molecular_Weight:             389.407
##########                DOCK_Rotatable_Bonds:                   9
##########                       Formal_Charge:           0.0199995
##########                     HBond_Acceptors:                   9
##########                        HBond_Donors:                   2
##########                         Heavy_Atoms:                  27
##########                          Grid_Score:          -32.254730
##########                     Grid_vdw_energy:          -31.837280
##########                      Grid_es_energy:           -0.417451
##########           Internal_energy_repulsive:           15.145421

@<TRIPOS>MOLECULE
ZINC000751548479
 43 44 1 0 0
SMALL
USER_CHARGES


@<TRIPOS>ATOM
      1 C1          4.7391    3.0519   48.1343 C.3     1  ZINC000751548479   -0.1600
      2 C2          3.4502    3.2458   48.9358 C.3     1  ZINC000751548479    0.0800
      3 O3          3.1536    2.0325   49.6763 O.3     1  ZINC000751548479   -0.3600
      4 C4          1.9113    1.9132   50.1818 C.2     1  ZINC000751548479    0.6500
      5 O5          1.5442    0.8526   50.6474 O.2     1  ZINC000751548479   -0.5400
      6 N6          1.0751    2.9701   50.1711 N.am    1  ZINC000751548479   -0.6500
      7 C7         -0.2133    2.8465   50.6953 C.ar    1  ZINC000751548479    0.2000
      8 C8         -0.5176    3.4001   51.9305 C.ar    1  ZINC000751548479   -0.1000
      9 C9         -1.7908    3.2788   52.4501 C.ar    1  ZINC000751548479   -0.1000
     10 C10        -2.7773    2.6017   51.7411 C.ar    1  ZINC000751548479    0.1300
     11 N11        -4.0649    2.4837   52.2764 N.am    1  ZINC000751548479   -1.0500
     12 S12        -5.3440    2.1294   51.2862 S.o2    1  ZINC000751548479    2.6800
     13 O13        -5.5093    3.2497   50.4279 O.2     1  ZINC000751548479   -0.9500
     14 O14        -5.1275    0.8090   50.8079 O.2     1  ZINC000751548479   -0.9400
     15 C15        -6.7844    2.0618   52.2990 C.2     1  ZINC000751548479   -0.7500
     16 C16        -7.2346    0.8931   52.7340 C.2     1  ZINC000751548479    0.0700
     17 C17        -8.4416    0.8365   53.5849 C.ar    1  ZINC000751548479   -0.1100
     18 C18        -9.3253   -0.2381   53.4760 C.ar    1  ZINC000751548479   -0.0600
     19 C19       -10.4501   -0.2863   54.2729 C.ar    1  ZINC000751548479   -0.1600
     20 C20       -10.7037    0.7301   55.1800 C.ar    1  ZINC000751548479    0.1200
     21 F21       -11.8070    0.6783   55.9579 F       1  ZINC000751548479   -0.1300
     22 C22        -9.8292    1.7991   55.2925 C.ar    1  ZINC000751548479   -0.1600
     23 C23        -8.6987    1.8545   54.5042 C.ar    1  ZINC000751548479   -0.0500
     24 C24        -2.4889    2.0445   50.5066 C.ar    1  ZINC000751548479   -0.0600
     25 C25        -1.2047    2.1671   49.9719 C.ar    1  ZINC000751548479   -0.0300
     26 C26        -0.8989    1.5941   48.6957 C.1     1  ZINC000751548479    0.2500
     27 N27        -0.6564    1.1395   47.6833 N.1     1  ZINC000751548479   -0.4000
     28 H28         4.6125    2.2230   47.4379 H       1  ZINC000751548479    0.0700
     29 H29         4.9617    3.9626   47.5785 H       1  ZINC000751548479    0.0900
     30 H30         5.5610    2.8319   48.8155 H       1  ZINC000751548479    0.0700
     31 H31         3.5767    4.0748   49.6321 H       1  ZINC000751548479    0.0800
     32 H32         2.6283    3.4658   48.2546 H       1  ZINC000751548479    0.0800
     33 H33         1.3682    3.8167   49.7994 H       1  ZINC000751548479    0.4200
     34 H34         0.2434    3.9270   52.4869 H       1  ZINC000751548479    0.1600
     35 H35        -2.0219    3.7115   53.4123 H       1  ZINC000751548479    0.1700
     36 H36        -4.2081    2.6095   53.2275 H       1  ZINC000751548479    0.4300
     37 H37        -7.3004    2.9723   52.5653 H       1  ZINC000751548479    0.1700
     38 H38        -6.7192   -0.0176   52.4665 H       1  ZINC000751548479    0.1500
     39 H39        -9.1290   -1.0304   52.7688 H       1  ZINC000751548479    0.1400
     40 H40       -11.1347   -1.1175   54.1893 H       1  ZINC000751548479    0.1400
     41 H41       -10.0312    2.5885   56.0013 H       1  ZINC000751548479    0.1400
     42 H42        -8.0177    2.6879   54.5928 H       1  ZINC000751548479    0.1400
     43 H43        -3.2561    1.5191   49.9573 H       1  ZINC000751548479    0.1500
@<TRIPOS>BOND
     1     1     2    1
     2     1    28    1
     3     1    29    1
     4     1    30    1
     5     2     3    1
     6     2    31    1
     7     2    32    1
     8     3     4    1
     9     4     5    2
    10     4     6   am
    11     6     7    1
    12     6    33    1
    13     7    25   ar
    14     7     8   ar
    15     8     9   ar
    16     8    34    1
    17     9    10   ar
    18     9    35    1
    19    10    11    1
    20    10    24   ar
    21    11    12   am
    22    11    36    1
    23    12    13    2
    24    12    14    2
    25    12    15    1
    26    15    16    2
    27    15    37    1
    28    16    17    1
    29    16    38    1
    30    17    23   ar
    31    17    18   ar
    32    18    19   ar
    33    18    39    1
    34    19    20   ar
    35    19    40    1
    36    20    21    1
    37    20    22   ar
    38    22    23   ar
    39    22    41    1
    40    23    42    1
    41    24    25   ar
    42    24    43    1
    43    25    26    1
    44    26    27    3
@<TRIPOS>SUBSTRUCTURE
     1 ZINC000751548479        1 TEMP              0 ****  ****    0 ROOT


##########                                Name:    ZINC001058079801
##########                DOCK_Rotatable_Bonds:                   7
##########                         Heavy_Atoms:                  24
##########                    Molecular_Weight:             349.457
##########                DOCK_Rotatable_Bonds:                   7
##########                       Formal_Charge:           0.0200001
##########                     HBond_Acceptors:                   8
##########                        HBond_Donors:                   0
##########                         Heavy_Atoms:                  24
##########                          Grid_Score:          -32.251083
##########                     Grid_vdw_energy:          -31.492931
##########                      Grid_es_energy:           -0.758153
##########           Internal_energy_repulsive:           18.681967

@<TRIPOS>MOLECULE
ZINC001058079801
 47 49 1 0 0
SMALL
USER_CHARGES


@<TRIPOS>ATOM
      1 C1          3.1193    0.3344   49.5432 C.3     1  ZINC001058079801   -0.1500
      2 C2          1.8651    0.7218   50.3291 C.3     1  ZINC001058079801   -0.1200
      3 C3          1.0460    1.7283   49.5186 C.3     1  ZINC001058079801   -0.0300
      4 C4          0.1065    2.4668   50.4367 C.2     1  ZINC001058079801    0.2900
      5 N5          0.5577    3.1759   51.4302 N.2     1  ZINC001058079801   -0.4800
      6 S6         -0.8141    3.8263   52.1938 S.3     1  ZINC001058079801    0.1900
      7 C7         -1.9353    3.0920   51.1111 C.2     1  ZINC001058079801    0.2700
      8 N8         -3.3147    3.1918   51.1316 N.3     1  ZINC001058079801   -0.4300
      9 C9         -3.7878    3.6794   52.4335 C.3     1  ZINC001058079801    0.0700
     10 C10        -5.2986    3.9154   52.3729 C.3     1  ZINC001058079801   -0.1300
     11 C11        -6.0011    2.6035   52.0123 C.3     1  ZINC001058079801    0.1300
     12 N12        -7.4429    2.8362   51.8957 N.am    1  ZINC001058079801   -0.6100
     13 C13        -7.9577    3.7423   50.8662 C.3     1  ZINC001058079801    0.0700
     14 C14        -8.2956    2.2166   52.7357 C.2     1  ZINC001058079801    0.5200
     15 O15        -9.4890    2.4104   52.6402 O.2     1  ZINC001058079801   -0.5300
     16 C16        -7.7661    1.2831   53.7936 C.3     1  ZINC001058079801   -0.0600
     17 C17        -8.9077    0.5016   54.3910 C.2     1  ZINC001058079801   -0.1900
     18 C18        -9.8209   -0.2644   53.7476 C.2     1  ZINC001058079801   -0.0400
     19 O19       -10.6349   -0.7577   54.6914 O.3     1  ZINC001058079801    0.1000
     20 N20       -10.3160   -0.3804   55.7951 N.2     1  ZINC001058079801   -0.3600
     21 C21        -9.2697    0.3931   55.7534 C.2     1  ZINC001058079801    0.0000
     22 C22        -5.4557    2.0921   50.6760 C.3     1  ZINC001058079801   -0.1200
     23 C23        -3.9402    1.9090   50.7858 C.3     1  ZINC001058079801    0.0400
     24 N24        -1.1931    2.4198   50.2566 N.2     1  ZINC001058079801   -0.5300
     25 H25         3.7029   -0.3826   50.1206 H       1  ZINC001058079801    0.0600
     26 H26         2.8287   -0.1146   48.5935 H       1  ZINC001058079801    0.0600
     27 H27         3.7199    1.2244   49.3556 H       1  ZINC001058079801    0.0600
     28 H28         1.2645   -0.1682   50.5168 H       1  ZINC001058079801    0.0700
     29 H29         2.1558    1.1709   51.2789 H       1  ZINC001058079801    0.0700
     30 H30         1.7174    2.4394   49.0373 H       1  ZINC001058079801    0.1000
     31 H31         0.4706    1.2001   48.7583 H       1  ZINC001058079801    0.0900
     32 H32        -3.5664    2.9380   53.2012 H       1  ZINC001058079801    0.0600
     33 H33        -3.2835    4.6147   52.6760 H       1  ZINC001058079801    0.1000
     34 H34        -5.6520    4.2624   53.3439 H       1  ZINC001058079801    0.0800
     35 H35        -5.5195    4.6668   51.6149 H       1  ZINC001058079801    0.0800
     36 H36        -5.8133    1.8639   52.7906 H       1  ZINC001058079801    0.1000
     37 H37        -8.1595    3.1796   49.9547 H       1  ZINC001058079801    0.0600
     38 H38        -8.8791    4.2062   51.2182 H       1  ZINC001058079801    0.0800
     39 H39        -7.2176    4.5154   50.6595 H       1  ZINC001058079801    0.0800
     40 H40        -7.0497    0.5947   53.3451 H       1  ZINC001058079801    0.1100
     41 H41        -7.2735    1.8616   54.5752 H       1  ZINC001058079801    0.1100
     42 H42        -9.8813   -0.4425   52.6841 H       1  ZINC001058079801    0.2200
     43 H43        -8.7796    0.8642   56.5926 H       1  ZINC001058079801    0.1900
     44 H44        -5.9212    1.1365   50.4347 H       1  ZINC001058079801    0.0900
     45 H45        -5.6790    2.8148   49.8913 H       1  ZINC001058079801    0.0800
     46 H46        -3.5467    1.5585   49.8316 H       1  ZINC001058079801    0.1000
     47 H47        -3.7183    1.1759   51.5613 H       1  ZINC001058079801    0.0700
@<TRIPOS>BOND
     1     1     2    1
     2     1    25    1
     3     1    26    1
     4     1    27    1
     5     2     3    1
     6     2    28    1
     7     2    29    1
     8     3     4    1
     9     3    30    1
    10     3    31    1
    11     4    24    1
    12     4     5    2
    13     5     6    1
    14     6     7    1
    15     7     8    1
    16     7    24    2
    17     8    23    1
    18     8     9    1
    19     9    10    1
    20     9    32    1
    21     9    33    1
    22    10    11    1
    23    10    34    1
    24    10    35    1
    25    11    12    1
    26    11    22    1
    27    11    36    1
    28    12    13    1
    29    12    14   am
    30    13    37    1
    31    13    38    1
    32    13    39    1
    33    14    15    2
    34    14    16    1
    35    16    17    1
    36    16    40    1
    37    16    41    1
    38    17    21    1
    39    17    18    2
    40    18    19    1
    41    18    42    1
    42    19    20    1
    43    20    21    2
    44    21    43    1
    45    22    23    1
    46    22    44    1
    47    22    45    1
    48    23    46    1
    49    23    47    1
@<TRIPOS>SUBSTRUCTURE
     1 ZINC001058079801        1 TEMP              0 ****  ****    0 ROOT


##########                                Name:    ZINC000548281822
##########                DOCK_Rotatable_Bonds:                   6
##########                         Heavy_Atoms:                  24
##########                    Molecular_Weight:             332.406
##########                DOCK_Rotatable_Bonds:                   6
##########                       Formal_Charge:        -5.58794e-08
##########                     HBond_Acceptors:                   8
##########                        HBond_Donors:                   2
##########                         Heavy_Atoms:                  24
##########                          Grid_Score:          -32.243774
##########                     Grid_vdw_energy:          -31.545595
##########                      Grid_es_energy:           -0.698179
##########           Internal_energy_repulsive:            7.490703

@<TRIPOS>MOLECULE
ZINC000548281822
 48 50 1 0 0
SMALL
USER_CHARGES


@<TRIPOS>ATOM
      1 C1        -11.5014    0.4400   52.8582 C.3     1  ZINC000548281822   -0.1700
      2 C2        -10.0340    0.2119   53.2268 C.3     1  ZINC000548281822    0.2600
      3 H3         -9.6785   -0.7032   52.7532 H       1  ZINC000548281822    0.1400
      4 N4         -9.2317    1.3460   52.7619 N.am    1  ZINC000548281822   -0.7400
      5 C5         -7.8978    1.2148   52.6207 C.2     1  ZINC000548281822    0.7100
      6 O6         -7.3601    0.1558   52.8806 O.2     1  ZINC000548281822   -0.5700
      7 N7         -7.1598    2.2577   52.1915 N.am    1  ZINC000548281822   -0.7400
      8 C8         -5.7101    2.1147   52.0363 C.3     1  ZINC000548281822    0.1600
      9 H9         -5.3924    1.1577   52.4502 H       1  ZINC000548281822    0.1000
     10 C10        -5.3465    2.1750   50.5498 C.3     1  ZINC000548281822   -0.1400
     11 C11        -3.8733    1.7933   50.3676 C.3     1  ZINC000548281822    0.1100
     12 N12        -3.0623    2.5858   51.2948 N.pl3   1  ZINC000548281822   -0.4600
     13 C13        -1.7174    2.8034   51.2516 C.2     1  ZINC000548281822   -0.0500
     14 C14        -1.4183    3.5904   52.3050 C.2     1  ZINC000548281822   -0.0300
     15 N15        -2.5561    3.8440   52.9718 N.2     1  ZINC000548281822   -0.4900
     16 C16        -3.5448    3.2461   52.3742 C.2     1  ZINC000548281822    0.2100
     17 C17        -5.0005    3.2546   52.7780 C.3     1  ZINC000548281822   -0.0500
     18 C18        -9.9058    0.0855   54.7230 C.2     1  ZINC000548281822    0.1700
     19 N19        -9.1980    0.8555   55.5140 N.2     1  ZINC000548281822   -0.4600
     20 C20        -9.3837    0.3690   56.7540 C.2     1  ZINC000548281822    0.1900
     21 C21        -8.7795    0.9101   58.0242 C.3     1  ZINC000548281822    0.0200
     22 C22        -8.4684   -0.2479   58.9745 C.3     1  ZINC000548281822   -0.1400
     23 C23        -7.4876    1.6608   57.6949 C.3     1  ZINC000548281822   -0.1400
     24 C24        -9.7690    1.8666   58.6925 C.3     1  ZINC000548281822   -0.1400
     25 N25       -10.1802   -0.6531   56.6558 N.2     1  ZINC000548281822   -0.3700
     26 O26       -10.4963   -0.8292   55.4980 O.3     1  ZINC000548281822    0.0800
     27 H27       -11.8569    1.3551   53.3319 H       1  ZINC000548281822    0.0700
     28 H28       -11.5941    0.5313   51.7760 H       1  ZINC000548281822    0.0900
     29 H29       -12.0984   -0.4038   53.2041 H       1  ZINC000548281822    0.0800
     30 H30        -9.6605    2.1913   52.5557 H       1  ZINC000548281822    0.4000
     31 H31        -7.5886    3.1031   51.9853 H       1  ZINC000548281822    0.4000
     32 H32        -5.9736    1.4782   49.9939 H       1  ZINC000548281822    0.1000
     33 H33        -5.5084    3.1864   50.1769 H       1  ZINC000548281822    0.0800
     34 H34        -3.7416    0.7327   50.5816 H       1  ZINC000548281822    0.0900
     35 H35        -3.5658    2.0023   49.3429 H       1  ZINC000548281822    0.1000
     36 H36        -1.0255    2.4194   50.5166 H       1  ZINC000548281822    0.1800
     37 H37        -0.4353    3.9529   52.5670 H       1  ZINC000548281822    0.1700
     38 H38        -5.4523    4.2082   52.5046 H       1  ZINC000548281822    0.0900
     39 H39        -5.0845    3.1023   53.8540 H       1  ZINC000548281822    0.1000
     40 H40        -7.7635   -0.9294   58.4983 H       1  ZINC000548281822    0.0600
     41 H41        -8.0314    0.1434   59.8932 H       1  ZINC000548281822    0.0700
     42 H42        -9.3888   -0.7828   59.2091 H       1  ZINC000548281822    0.0700
     43 H43        -7.7093    2.4858   57.0179 H       1  ZINC000548281822    0.0600
     44 H44        -7.0507    2.0521   58.6136 H       1  ZINC000548281822    0.0700
     45 H45        -6.7827    0.9794   57.2188 H       1  ZINC000548281822    0.0600
     46 H46       -10.6895    1.3318   58.9271 H       1  ZINC000548281822    0.0700
     47 H47        -9.3320    2.2579   59.6112 H       1  ZINC000548281822    0.0700
     48 H48        -9.9907    2.6916   58.0155 H       1  ZINC000548281822    0.0600
@<TRIPOS>BOND
     1     1     2    1
     2     1    27    1
     3     1    28    1
     4     1    29    1
     5     2     3    1
     6     2     4    1
     7     2    18    1
     8     4     5   am
     9     4    30    1
    10     5     6    2
    11     5     7   am
    12     7     8    1
    13     7    31    1
    14     8     9    1
    15     8    17    1
    16     8    10    1
    17    10    11    1
    18    10    32    1
    19    10    33    1
    20    11    12    1
    21    11    34    1
    22    11    35    1
    23    12    16    1
    24    12    13    1
    25    13    14    2
    26    13    36    1
    27    14    15    1
    28    14    37    1
    29    15    16    2
    30    16    17    1
    31    17    38    1
    32    17    39    1
    33    18    26    1
    34    18    19    2
    35    19    20    1
    36    20    21    1
    37    20    25    2
    38    21    22    1
    39    21    23    1
    40    21    24    1
    41    22    40    1
    42    22    41    1
    43    22    42    1
    44    23    43    1
    45    23    44    1
    46    23    45    1
    47    24    46    1
    48    24    47    1
    49    24    48    1
    50    25    26    1
@<TRIPOS>SUBSTRUCTURE
     1 ZINC000548281822        1 TEMP              0 ****  ****    0 ROOT


##########                                Name:    ZINC000271662144
##########                DOCK_Rotatable_Bonds:                   8
##########                         Heavy_Atoms:                  26
##########                    Molecular_Weight:             390.402
##########                DOCK_Rotatable_Bonds:                   8
##########                       Formal_Charge:          0.00999944
##########                     HBond_Acceptors:                   9
##########                        HBond_Donors:                   3
##########                         Heavy_Atoms:                  26
##########                          Grid_Score:          -32.239586
##########                     Grid_vdw_energy:          -30.357000
##########                      Grid_es_energy:           -1.882585
##########           Internal_energy_repulsive:           21.070190

@<TRIPOS>MOLECULE
ZINC000271662144
 44 45 1 0 0
SMALL
USER_CHARGES


@<TRIPOS>ATOM
      1 C1         -0.9414    5.6446   53.4368 C.3     1  ZINC000271662144   -0.1400
      2 C2         -1.6683    4.3612   53.8432 C.3     1  ZINC000271662144    0.1200
      3 H3         -2.5663    4.6150   54.4063 H       1  ZINC000271662144    0.0600
      4 N4         -0.7820    3.5401   54.6789 N.3     1  ZINC000271662144   -0.6700
      5 C5         -1.1958    3.5856   56.0878 C.3     1  ZINC000271662144    0.1300
      6 H6         -1.2812    4.6241   56.4080 H       1  ZINC000271662144    0.1100
      7 C7         -2.5497    2.8906   56.2444 C.3     1  ZINC000271662144   -0.2000
      8 C8         -3.5318    3.8372   56.9375 C.3     1  ZINC000271662144    0.4600
      9 F9         -3.8512    4.8912   56.0748 F       1  ZINC000271662144   -0.1800
     10 F10        -4.6968    3.1382   57.2710 F       1  ZINC000271662144   -0.1800
     11 F11        -2.9452    4.3480   58.1004 F       1  ZINC000271662144   -0.1700
     12 C12        -0.1684    2.8813   56.9360 C.ar    1  ZINC000271662144   -0.0900
     13 C13        -0.4884    2.4840   58.2208 C.ar    1  ZINC000271662144   -0.0600
     14 C14         0.4528    1.8380   58.9996 C.ar    1  ZINC000271662144   -0.1600
     15 C15         1.7168    1.5883   58.4923 C.ar    1  ZINC000271662144    0.1000
     16 F16         2.6376    0.9565   59.2526 F       1  ZINC000271662144   -0.1400
     17 C17         2.0360    1.9863   57.2051 C.ar    1  ZINC000271662144   -0.1500
     18 C18         1.0915    2.6279   56.4265 C.ar    1  ZINC000271662144   -0.0700
     19 C19        -2.0517    3.5883   52.6076 C.ar    1  ZINC000271662144   -0.1100
     20 C20        -1.0750    3.1674   51.7250 C.ar    1  ZINC000271662144   -0.0400
     21 C21        -1.4268    2.4583   50.5914 C.ar    1  ZINC000271662144   -0.1400
     22 C22        -2.7552    2.1700   50.3411 C.ar    1  ZINC000271662144   -0.0200
     23 C23        -3.7322    2.5903   51.2245 C.ar    1  ZINC000271662144   -0.6800
     24 S24        -5.4257    2.2233   50.9051 S.o2    1  ZINC000271662144    2.7000
     25 N25        -6.1035    1.7495   52.3398 N.am    1  ZINC000271662144   -1.2500
     26 O26        -6.0441    3.4542   50.5562 O.2     1  ZINC000271662144   -0.9600
     27 O27        -5.4362    1.0812   50.0597 O.2     1  ZINC000271662144   -0.9600
     28 C28        -3.3801    3.2954   52.3599 C.ar    1  ZINC000271662144   -0.0100
     29 H29        -0.6640    6.2037   54.3306 H       1  ZINC000271662144    0.0600
     30 H30        -0.0432    5.3908   52.8737 H       1  ZINC000271662144    0.0700
     31 H31        -1.5990    6.2539   52.8167 H       1  ZINC000271662144    0.0600
     32 H32        -0.7467    2.5894   54.3430 H       1  ZINC000271662144    0.3500
     33 H33        -2.9363    2.6223   55.2612 H       1  ZINC000271662144    0.1100
     34 H34        -2.4282    1.9895   56.8453 H       1  ZINC000271662144    0.1200
     35 H35        -1.4744    2.6788   58.6163 H       1  ZINC000271662144    0.1300
     36 H36         0.2029    1.5284   60.0035 H       1  ZINC000271662144    0.1400
     37 H37         3.0216    1.7924   56.8085 H       1  ZINC000271662144    0.1400
     38 H38         1.3402    2.9380   55.4224 H       1  ZINC000271662144    0.1300
     39 H39        -0.0371    3.3926   51.9205 H       1  ZINC000271662144    0.1400
     40 H40        -0.6637    2.1299   49.9013 H       1  ZINC000271662144    0.1400
     41 H41        -3.0301    1.6168   49.4552 H       1  ZINC000271662144    0.1400
     42 H42        -7.0408    1.5020   52.3750 H       1  ZINC000271662144    0.4200
     43 H43        -5.5634    1.7193   53.1448 H       1  ZINC000271662144    0.4200
     44 H44        -4.1431    3.6238   53.0500 H       1  ZINC000271662144    0.1400
@<TRIPOS>BOND
     1     1     2    1
     2     1    29    1
     3     1    30    1
     4     1    31    1
     5     2     3    1
     6     2     4    1
     7     2    19    1
     8     4     5    1
     9     4    32    1
    10     5     6    1
    11     5     7    1
    12     5    12    1
    13     7     8    1
    14     7    33    1
    15     7    34    1
    16     8     9    1
    17     8    10    1
    18     8    11    1
    19    12    18   ar
    20    12    13   ar
    21    13    14   ar
    22    13    35    1
    23    14    15   ar
    24    14    36    1
    25    15    16    1
    26    15    17   ar
    27    17    18   ar
    28    17    37    1
    29    18    38    1
    30    19    28   ar
    31    19    20   ar
    32    20    21   ar
    33    20    39    1
    34    21    22   ar
    35    21    40    1
    36    22    23   ar
    37    22    41    1
    38    23    24    1
    39    23    28   ar
    40    24    25   am
    41    24    26    2
    42    24    27    2
    43    25    42    1
    44    25    43    1
    45    28    44    1
@<TRIPOS>SUBSTRUCTURE
     1 ZINC000271662144        1 TEMP              0 ****  ****    0 ROOT


##########                                Name:    ZINC000848949366
##########                DOCK_Rotatable_Bonds:                   8
##########                         Heavy_Atoms:                  25
##########                    Molecular_Weight:             368.773
##########                DOCK_Rotatable_Bonds:                   8
##########                       Formal_Charge:          0.00999947
##########                     HBond_Acceptors:                   9
##########                        HBond_Donors:                   3
##########                         Heavy_Atoms:                  25
##########                          Grid_Score:          -32.224766
##########                     Grid_vdw_energy:          -31.004227
##########                      Grid_es_energy:           -1.220537
##########           Internal_energy_repulsive:           12.500219

@<TRIPOS>MOLECULE
ZINC000848949366
 42 43 1 0 0
SMALL
USER_CHARGES


@<TRIPOS>ATOM
      1 C1         -4.5847    4.2678   57.2060 C.3     1  ZINC000848949366   -0.1500
      2 C2         -4.6740    4.7224   55.7477 C.3     1  ZINC000848949366    0.0600
      3 O3         -4.7337    3.5775   54.8948 O.3     1  ZINC000848949366   -0.3500
      4 C4         -4.8737    3.8055   53.5721 C.2     1  ZINC000848949366    0.5400
      5 O5         -4.8143    4.9419   53.1410 O.2     1  ZINC000848949366   -0.4800
      6 C6         -5.0893    2.7236   52.6867 C.2     1  ZINC000848949366   -0.2300
      7 C7         -4.1022    2.2710   51.8840 C.2     1  ZINC000848949366    0.2000
      8 C8         -2.7474    2.9293   51.9318 C.3     1  ZINC000848949366    0.1000
      9 O9         -1.8598    2.2795   50.9840 O.3     1  ZINC000848949366   -0.3500
     10 C10        -0.6109    2.7742   50.8773 C.2     1  ZINC000848949366    0.5100
     11 O11        -0.2405    3.6561   51.6268 O.2     1  ZINC000848949366   -0.4800
     12 C12         0.3057    2.2458   49.8517 C.ar    1  ZINC000848949366   -0.1600
     13 C13        -0.1891    1.4700   48.7997 C.ar    1  ZINC000848949366   -0.0300
     14 C14         0.6727    0.9787   47.8440 C.ar    1  ZINC000848949366   -0.1300
     15 C15         2.0305    1.2501   47.9207 C.ar    1  ZINC000848949366    0.0200
     16 Cl16        3.1054    0.6242   46.7098 Cl      1  ZINC000848949366   -0.0500
     17 C17         2.5329    2.0166   48.9558 C.ar    1  ZINC000848949366   -0.1500
     18 C18         1.6788    2.5235   49.9227 C.ar    1  ZINC000848949366    0.1900
     19 O19         2.1702    3.2756   50.9389 O.3     1  ZINC000848949366   -0.4700
     20 N20        -4.3115    1.2262   51.0300 N.am    1  ZINC000848949366   -0.6400
     21 C21        -5.4793    0.5806   50.9187 C.2     1  ZINC000848949366    0.7100
     22 O22        -5.5697   -0.3392   50.1292 O.2     1  ZINC000848949366   -0.5600
     23 N23        -6.5577    0.9172   51.6538 N.am    1  ZINC000848949366   -0.7100
     24 C24        -6.4339    2.0292   52.6112 C.3     1  ZINC000848949366    0.2000
     25 H25        -6.6791    1.6479   53.6025 H       1  ZINC000848949366    0.0900
     26 C26        -7.4785    3.0853   52.2450 C.3     1  ZINC000848949366   -0.1700
     27 H27        -4.5391    5.1412   57.8566 H       1  ZINC000848949366    0.0800
     28 H28        -5.4638    3.6739   57.4559 H       1  ZINC000848949366    0.0700
     29 H29        -3.6873    3.6647   57.3441 H       1  ZINC000848949366    0.0700
     30 H30        -5.5714    5.3255   55.6096 H       1  ZINC000848949366    0.0700
     31 H31        -3.7949    5.3164   55.4978 H       1  ZINC000848949366    0.0700
     32 H32        -2.8462    3.9835   51.6730 H       1  ZINC000848949366    0.1100
     33 H33        -2.3349    2.8390   52.9367 H       1  ZINC000848949366    0.1000
     34 H34        -1.2457    1.2556   48.7364 H       1  ZINC000848949366    0.1500
     35 H35         0.2894    0.3793   47.0316 H       1  ZINC000848949366    0.1500
     36 H36         3.5915    2.2237   49.0090 H       1  ZINC000848949366    0.1500
     37 H37         1.5113    3.5157   51.6047 H       1  ZINC000848949366    0.4000
     38 H38        -3.5729    0.9355   50.4725 H       1  ZINC000848949366    0.4300
     39 H39        -7.3944    0.4362   51.5568 H       1  ZINC000848949366    0.4400
     40 H40        -8.4747    2.6468   52.3036 H       1  ZINC000848949366    0.0700
     41 H41        -7.4084    3.9220   52.9402 H       1  ZINC000848949366    0.0700
     42 H42        -7.2967    3.4398   51.2304 H       1  ZINC000848949366    0.0700
@<TRIPOS>BOND
     1     1     2    1
     2     1    27    1
     3     1    28    1
     4     1    29    1
     5     2     3    1
     6     2    30    1
     7     2    31    1
     8     3     4    1
     9     4     5    2
    10     4     6    1
    11     6    24    1
    12     6     7    2
    13     7     8    1
    14     7    20    1
    15     8     9    1
    16     8    32    1
    17     8    33    1
    18     9    10    1
    19    10    11    2
    20    10    12    1
    21    12    18   ar
    22    12    13   ar
    23    13    14   ar
    24    13    34    1
    25    14    15   ar
    26    14    35    1
    27    15    16    1
    28    15    17   ar
    29    17    18   ar
    30    17    36    1
    31    18    19    1
    32    19    37    1
    33    20    21   am
    34    20    38    1
    35    21    22    2
    36    21    23   am
    37    23    24    1
    38    23    39    1
    39    24    25    1
    40    24    26    1
    41    26    40    1
    42    26    41    1
    43    26    42    1
@<TRIPOS>SUBSTRUCTURE
     1 ZINC000848949366        1 TEMP              0 ****  ****    0 ROOT


##########                                Name:    ZINC000008416770
##########                DOCK_Rotatable_Bonds:                  13
##########                         Heavy_Atoms:                  30
##########                    Molecular_Weight:             412.442
##########                DOCK_Rotatable_Bonds:                  13
##########                       Formal_Charge:          -0.0199998
##########                     HBond_Acceptors:                   8
##########                        HBond_Donors:                   2
##########                         Heavy_Atoms:                  30
##########                          Grid_Score:          -32.164764
##########                     Grid_vdw_energy:          -31.179754
##########                      Grid_es_energy:           -0.985012
##########           Internal_energy_repulsive:           29.968641

@<TRIPOS>MOLECULE
ZINC000008416770
 54 55 1 0 0
SMALL
USER_CHARGES


@<TRIPOS>ATOM
      1 C1        -10.3356    2.4447   67.1888 C.3     1  ZINC000008416770   -0.1500
      2 C2         -8.8847    2.7731   67.5466 C.3     1  ZINC000008416770    0.0600
      3 O3         -8.2280    1.5794   68.0487 O.3     1  ZINC000008416770   -0.3500
      4 C4         -8.1652    0.5203   67.2179 C.2     1  ZINC000008416770    0.5100
      5 O5         -7.9422   -0.5882   67.6625 O.2     1  ZINC000008416770   -0.5100
      6 C6         -8.3672    0.7068   65.7691 C.ar    1  ZINC000008416770   -0.1500
      7 C7         -9.5488    0.2681   65.1641 C.ar    1  ZINC000008416770   -0.0400
      8 C8         -9.7341    0.4442   63.8116 C.ar    1  ZINC000008416770   -0.1400
      9 C9         -8.7471    1.0580   63.0466 C.ar    1  ZINC000008416770    0.1800
     10 N10        -8.9382    1.2348   61.6770 N.am    1  ZINC000008416770   -0.6700
     11 C11        -8.4172    0.3498   60.8042 C.2     1  ZINC000008416770    0.5200
     12 O12        -7.7823   -0.6004   61.2103 O.2     1  ZINC000008416770   -0.5100
     13 C13        -8.6238    0.5408   59.3237 C.3     1  ZINC000008416770   -0.1300
     14 C14        -9.7699   -0.3549   58.8490 C.3     1  ZINC000008416770   -0.1000
     15 C15       -10.4216    0.2625   57.6386 C.2     1  ZINC000008416770    0.4700
     16 O16       -11.5864    0.5815   57.6762 O.2     1  ZINC000008416770   -0.5100
     17 O17        -9.7082    0.4580   56.5185 O.3     1  ZINC000008416770   -0.3300
     18 C18       -10.4314    0.9249   55.3492 C.3     1  ZINC000008416770    0.0500
     19 C19        -9.4517    1.2710   54.2577 C.2     1  ZINC000008416770    0.5100
     20 O20        -9.8161    1.9171   53.2981 O.2     1  ZINC000008416770   -0.4900
     21 N21        -8.1705    0.8625   54.3479 N.am    1  ZINC000008416770   -0.6700
     22 C22        -7.2608    1.1838   53.3344 C.ar    1  ZINC000008416770    0.1400
     23 C23        -6.6404    2.4263   53.3245 C.ar    1  ZINC000008416770   -0.1400
     24 C24        -5.7429    2.7404   52.3228 C.ar    1  ZINC000008416770   -0.1000
     25 C25        -5.4622    1.8194   51.3303 C.ar    1  ZINC000008416770   -0.1000
     26 C26        -4.4827    2.1657   50.2385 C.3     1  ZINC000008416770   -0.1200
     27 C27        -6.0779    0.5813   51.3376 C.ar    1  ZINC000008416770   -0.1000
     28 C28        -6.9719    0.2590   52.3396 C.ar    1  ZINC000008416770   -0.1200
     29 C29        -7.5700    1.4963   63.6455 C.ar    1  ZINC000008416770   -0.1600
     30 C30        -7.3799    1.3279   64.9983 C.ar    1  ZINC000008416770   -0.0300
     31 H31       -10.3544    1.6699   66.4223 H       1  ZINC000008416770    0.0700
     32 H32       -10.8574    2.0894   68.0775 H       1  ZINC000008416770    0.0700
     33 H33       -10.8286    3.3407   66.8120 H       1  ZINC000008416770    0.0800
     34 H34        -8.3630    3.1284   66.6580 H       1  ZINC000008416770    0.0700
     35 H35        -8.8659    3.5478   68.3131 H       1  ZINC000008416770    0.0700
     36 H36       -10.3151   -0.2087   65.7572 H       1  ZINC000008416770    0.1400
     37 H37       -10.6464    0.1053   63.3436 H       1  ZINC000008416770    0.1400
     38 H38        -9.4461    1.9947   61.3522 H       1  ZINC000008416770    0.4200
     39 H39        -8.8704    1.5834   59.1228 H       1  ZINC000008416770    0.1100
     40 H40        -7.7104    0.2744   58.7920 H       1  ZINC000008416770    0.1100
     41 H41        -9.3785   -1.3384   58.5889 H       1  ZINC000008416770    0.1200
     42 H42       -10.5061   -0.4560   59.6463 H       1  ZINC000008416770    0.1200
     43 H43       -11.1024    0.1402   54.9999 H       1  ZINC000008416770    0.1100
     44 H44       -11.0119    1.8097   55.6104 H       1  ZINC000008416770    0.1100
     45 H45        -7.8790    0.3459   55.1153 H       1  ZINC000008416770    0.4100
     46 H46        -6.8598    3.1463   54.0990 H       1  ZINC000008416770    0.1300
     47 H47        -5.2601    3.7064   52.3145 H       1  ZINC000008416770    0.1300
     48 H48        -3.4789    1.8704   50.5438 H       1  ZINC000008416770    0.0700
     49 H49        -4.7550    1.6369   49.3250 H       1  ZINC000008416770    0.0700
     50 H50        -4.5059    3.2402   50.0569 H       1  ZINC000008416770    0.0700
     51 H51        -5.8565   -0.1358   50.5609 H       1  ZINC000008416770    0.1300
     52 H52        -7.4525   -0.7083   52.3448 H       1  ZINC000008416770    0.1300
     53 H53        -6.8062    1.9727   63.0487 H       1  ZINC000008416770    0.1400
     54 H54        -6.4661    1.6683   65.4623 H       1  ZINC000008416770    0.1400
@<TRIPOS>BOND
     1     1     2    1
     2     1    31    1
     3     1    32    1
     4     1    33    1
     5     2     3    1
     6     2    34    1
     7     2    35    1
     8     3     4    1
     9     4     5    2
    10     4     6    1
    11     6    30   ar
    12     6     7   ar
    13     7     8   ar
    14     7    36    1
    15     8     9   ar
    16     8    37    1
    17     9    10    1
    18     9    29   ar
    19    10    11   am
    20    10    38    1
    21    11    12    2
    22    11    13    1
    23    13    14    1
    24    13    39    1
    25    13    40    1
    26    14    15    1
    27    14    41    1
    28    14    42    1
    29    15    16    2
    30    15    17    1
    31    17    18    1
    32    18    19    1
    33    18    43    1
    34    18    44    1
    35    19    20    2
    36    19    21   am
    37    21    22    1
    38    21    45    1
    39    22    28   ar
    40    22    23   ar
    41    23    24   ar
    42    23    46    1
    43    24    25   ar
    44    24    47    1
    45    25    26    1
    46    25    27   ar
    47    26    48    1
    48    26    49    1
    49    26    50    1
    50    27    28   ar
    51    27    51    1
    52    28    52    1
    53    29    30   ar
    54    29    53    1
    55    30    54    1
@<TRIPOS>SUBSTRUCTURE
     1 ZINC000008416770        1 TEMP              0 ****  ****    0 ROOT


##########                                Name:    ZINC000509132103
##########                DOCK_Rotatable_Bonds:                   7
##########                         Heavy_Atoms:                  29
##########                    Molecular_Weight:              405.52
##########                DOCK_Rotatable_Bonds:                   7
##########                       Formal_Charge:          -0.0499998
##########                     HBond_Acceptors:                   6
##########                        HBond_Donors:                   0
##########                         Heavy_Atoms:                  29
##########                          Grid_Score:          -32.153706
##########                     Grid_vdw_energy:          -30.856157
##########                      Grid_es_energy:           -1.297549
##########           Internal_energy_repulsive:           15.103016

@<TRIPOS>MOLECULE
ZINC000509132103
 52 55 1 0 0
SMALL
USER_CHARGES


@<TRIPOS>ATOM
      1 C1         -6.4000    1.0150   67.0219 C.3     1  ZINC000509132103    0.0300
      2 O2         -7.5087    0.1345   66.8276 O.3     1  ZINC000509132103   -0.3000
      3 C3         -8.0627    0.1058   65.5892 C.ar    1  ZINC000509132103    0.2700
      4 C4         -7.6512    1.0147   64.6181 C.ar    1  ZINC000509132103   -0.1300
      5 C5         -8.2479    0.9444   63.3682 C.ar    1  ZINC000509132103   -0.0700
      6 C6         -9.2174   -0.0262   63.1626 C.ar    1  ZINC000509132103    0.0500
      7 C7         -9.8946   -0.1430   61.8215 C.3     1  ZINC000509132103   -0.0500
      8 S8         -8.6386   -0.2663   60.5185 S.3     1  ZINC000509132103   -0.1500
      9 C9         -9.3205    0.7700   59.1950 C.3     1  ZINC000509132103   -0.1300
     10 C10        -8.2867    0.9477   58.1130 C.2     1  ZINC000509132103    0.5400
     11 O11        -7.2279    0.3604   58.1835 O.2     1  ZINC000509132103   -0.5100
     12 N12        -8.5386    1.7594   57.0669 N.am    1  ZINC000509132103   -0.6100
     13 C13        -9.8090    2.4837   56.9523 C.3     1  ZINC000509132103    0.1500
     14 C14       -10.3269    2.3800   55.5397 C.ar    1  ZINC000509132103   -0.1000
     15 C15       -11.6294    2.7926   55.2956 C.ar    1  ZINC000509132103   -0.1100
     16 C16       -12.1564    2.7314   54.0216 C.ar    1  ZINC000509132103   -0.1200
     17 C17       -11.3802    2.2570   52.9809 C.ar    1  ZINC000509132103   -0.1200
     18 C18       -10.0868    1.8429   53.2231 C.ar    1  ZINC000509132103   -0.1100
     19 C19        -9.5556    1.8976   54.5057 C.ar    1  ZINC000509132103   -0.0600
     20 C20        -8.1462    1.4035   54.6994 C.3     1  ZINC000509132103   -0.0200
     21 H21        -8.1508    0.3144   54.7419 H       1  ZINC000509132103    0.1000
     22 C22        -7.2999    1.8505   53.5353 C.ar    1  ZINC000509132103   -0.0800
     23 C23        -7.1873    3.1960   53.2391 C.ar    1  ZINC000509132103   -0.1100
     24 C24        -6.4109    3.6060   52.1713 C.ar    1  ZINC000509132103   -0.1200
     25 C25        -5.7470    2.6705   51.4000 C.ar    1  ZINC000509132103   -0.1200
     26 C26        -5.8590    1.3251   51.6969 C.ar    1  ZINC000509132103   -0.1200
     27 C27        -6.6317    0.9153   52.7673 C.ar    1  ZINC000509132103   -0.1100
     28 C28        -7.5474    1.9592   55.9969 C.3     1  ZINC000509132103    0.1200
     29 N29        -9.5458   -0.8469   64.1409 N.ar    1  ZINC000509132103   -0.1900
     30 N30        -8.9927   -0.7897   65.2977 N.ar    1  ZINC000509132103   -0.3000
     31 H31        -6.7092    2.0397   66.8156 H       1  ZINC000509132103    0.0600
     32 H32        -6.0534    0.9407   68.0527 H       1  ZINC000509132103    0.1000
     33 H33        -5.5917    0.7362   66.3458 H       1  ZINC000509132103    0.0600
     34 H34        -6.8911    1.7517   64.8316 H       1  ZINC000509132103    0.1600
     35 H35        -7.9666    1.6253   62.5786 H       1  ZINC000509132103    0.1600
     36 H36       -10.5215   -1.0346   61.8073 H       1  ZINC000509132103    0.1100
     37 H37       -10.5124    0.7382   61.6484 H       1  ZINC000509132103    0.1000
     38 H38       -10.2052    0.2899   58.7770 H       1  ZINC000509132103    0.1100
     39 H39        -9.5933    1.7444   59.6005 H       1  ZINC000509132103    0.1100
     40 H40       -10.5369    2.0502   57.6382 H       1  ZINC000509132103    0.1000
     41 H41        -9.6529    3.5323   57.2053 H       1  ZINC000509132103    0.0900
     42 H42       -12.2352    3.1639   56.1089 H       1  ZINC000509132103    0.1200
     43 H43       -13.1709    3.0533   53.8384 H       1  ZINC000509132103    0.1300
     44 H44       -11.7854    2.2101   51.9810 H       1  ZINC000509132103    0.1200
     45 H45        -9.4819    1.4727   52.4086 H       1  ZINC000509132103    0.1200
     46 H46        -7.7060    3.9270   53.8417 H       1  ZINC000509132103    0.1200
     47 H47        -6.3235    4.6572   51.9394 H       1  ZINC000509132103    0.1200
     48 H48        -5.1411    2.9908   50.5653 H       1  ZINC000509132103    0.1200
     49 H49        -5.3404    0.5941   51.0941 H       1  ZINC000509132103    0.1200
     50 H50        -6.7192   -0.1358   52.9991 H       1  ZINC000509132103    0.1200
     51 H51        -7.3335    3.0215   55.8790 H       1  ZINC000509132103    0.0800
     52 H52        -6.6302    1.4224   56.2393 H       1  ZINC000509132103    0.1000
@<TRIPOS>BOND
     1     1     2    1
     2     1    31    1
     3     1    32    1
     4     1    33    1
     5     2     3    1
     6     3    30   ar
     7     3     4   ar
     8     4     5   ar
     9     4    34    1
    10     5     6   ar
    11     5    35    1
    12     6     7    1
    13     6    29   ar
    14     7     8    1
    15     7    36    1
    16     7    37    1
    17     8     9    1
    18     9    10    1
    19     9    38    1
    20     9    39    1
    21    10    11    2
    22    10    12   am
    23    12    28    1
    24    12    13    1
    25    13    14    1
    26    13    40    1
    27    13    41    1
    28    14    19   ar
    29    14    15   ar
    30    15    16   ar
    31    15    42    1
    32    16    17   ar
    33    16    43    1
    34    17    18   ar
    35    17    44    1
    36    18    19   ar
    37    18    45    1
    38    19    20    1
    39    20    21    1
    40    20    22    1
    41    20    28    1
    42    22    27   ar
    43    22    23   ar
    44    23    24   ar
    45    23    46    1
    46    24    25   ar
    47    24    47    1
    48    25    26   ar
    49    25    48    1
    50    26    27   ar
    51    26    49    1
    52    27    50    1
    53    28    51    1
    54    28    52    1
    55    29    30   ar
@<TRIPOS>SUBSTRUCTURE
     1 ZINC000509132103        1 TEMP              0 ****  ****    0 ROOT


##########                                Name:    ZINC001500042809
##########                DOCK_Rotatable_Bonds:                   9
##########                         Heavy_Atoms:                  24
##########                    Molecular_Weight:              346.45
##########                DOCK_Rotatable_Bonds:                   9
##########                       Formal_Charge:           0.0200001
##########                     HBond_Acceptors:                   6
##########                        HBond_Donors:                   2
##########                         Heavy_Atoms:                  24
##########                          Grid_Score:          -32.151466
##########                     Grid_vdw_energy:          -31.042143
##########                      Grid_es_energy:           -1.109322
##########           Internal_energy_repulsive:           20.580402

@<TRIPOS>MOLECULE
ZINC001500042809
 46 47 1 0 0
SMALL
USER_CHARGES


@<TRIPOS>ATOM
      1 C1          3.0834   -0.6333   47.7442 C.3     1  ZINC001500042809    0.0200
      2 O2          2.3047    0.4708   47.2790 O.3     1  ZINC001500042809   -0.3100
      3 C3          1.4197    1.0125   48.1537 C.ar    1  ZINC001500042809    0.1600
      4 C4          1.8608    1.4787   49.3867 C.ar    1  ZINC001500042809   -0.1600
      5 C5          0.9658    2.0286   50.2772 C.ar    1  ZINC001500042809   -0.0200
      6 C6         -0.3872    2.1180   49.9396 C.ar    1  ZINC001500042809   -0.1800
      7 C7         -1.3497    2.7068   50.8912 C.2     1  ZINC001500042809    0.5600
      8 O8         -0.9724    3.5192   51.7134 O.2     1  ZINC001500042809   -0.5300
      9 N9         -2.6471    2.3440   50.8486 N.am    1  ZINC001500042809   -0.7300
     10 C10        -3.6029    2.9297   51.7919 C.3     1  ZINC001500042809    0.1300
     11 C11        -5.0234    2.7610   51.2493 C.3     1  ZINC001500042809   -0.1200
     12 H12        -5.0852    3.1956   50.2515 H       1  ZINC001500042809    0.0900
     13 C13        -5.3694    1.2723   51.1794 C.3     1  ZINC001500042809   -0.1500
     14 C14        -6.0113    3.4712   52.1770 C.3     1  ZINC001500042809    0.1300
     15 N15        -7.2933    3.6398   51.4883 N.am    1  ZINC001500042809   -0.7300
     16 C16        -7.4449    4.6213   50.5773 C.2     1  ZINC001500042809    0.5900
     17 O17        -6.5164    5.3668   50.3257 O.2     1  ZINC001500042809   -0.5200
     18 C18        -8.7281    4.7911   49.8894 C.2     1  ZINC001500042809   -0.2800
     19 C19        -9.0020    5.7403   48.9452 C.2     1  ZINC001500042809   -0.0100
     20 C20        -7.9946    6.7591   48.4781 C.3     1  ZINC001500042809   -0.1100
     21 C21       -10.2878    5.6728   48.4634 C.2     1  ZINC001500042809   -0.1500
     22 C22       -11.0423    4.7030   48.9933 C.2     1  ZINC001500042809   -0.2200
     23 S23       -10.1594    3.8014   50.1415 S.3     1  ZINC001500042809    0.1900
     24 C24        -0.8274    1.6435   48.7013 C.ar    1  ZINC001500042809   -0.0400
     25 C25         0.0746    1.0993   47.8144 C.ar    1  ZINC001500042809   -0.2200
     26 H26         3.6753   -0.3233   48.6054 H       1  ZINC001500042809    0.0600
     27 H27         2.4208   -1.4490   48.0334 H       1  ZINC001500042809    0.0600
     28 H28         3.7482   -0.9699   46.9486 H       1  ZINC001500042809    0.1000
     29 H29         2.9066    1.4092   49.6468 H       1  ZINC001500042809    0.1400
     30 H30         1.3092    2.3900   51.2352 H       1  ZINC001500042809    0.1400
     31 H31        -2.9479    1.6951   50.1934 H       1  ZINC001500042809    0.4000
     32 H32        -3.3856    3.9904   51.9178 H       1  ZINC001500042809    0.0800
     33 H33        -3.5192    2.4249   52.7543 H       1  ZINC001500042809    0.0800
     34 H34        -4.6655    0.7664   50.5186 H       1  ZINC001500042809    0.0600
     35 H35        -5.3075    0.8378   52.1772 H       1  ZINC001500042809    0.0600
     36 H36        -6.3814    1.1522   50.7929 H       1  ZINC001500042809    0.0600
     37 H37        -6.1581    2.8741   53.0770 H       1  ZINC001500042809    0.0800
     38 H38        -5.6145    4.4489   52.4504 H       1  ZINC001500042809    0.0800
     39 H39        -8.0331    3.0448   51.6878 H       1  ZINC001500042809    0.4000
     40 H40        -7.4418    6.3600   47.6276 H       1  ZINC001500042809    0.0800
     41 H41        -8.5117    7.6711   48.1798 H       1  ZINC001500042809    0.0700
     42 H42        -7.3016    6.9830   49.2891 H       1  ZINC001500042809    0.0900
     43 H43       -10.6615    6.3531   47.7125 H       1  ZINC001500042809    0.1500
     44 H44       -12.0717    4.5137   48.7266 H       1  ZINC001500042809    0.1700
     45 H45        -1.8731    1.7069   48.4386 H       1  ZINC001500042809    0.1300
     46 H46        -0.2643    0.7353   46.8558 H       1  ZINC001500042809    0.1400
@<TRIPOS>BOND
     1     1     2    1
     2     1    26    1
     3     1    27    1
     4     1    28    1
     5     2     3    1
     6     3    25   ar
     7     3     4   ar
     8     4     5   ar
     9     4    29    1
    10     5     6   ar
    11     5    30    1
    12     6     7    1
    13     6    24   ar
    14     7     8    2
    15     7     9   am
    16     9    10    1
    17     9    31    1
    18    10    11    1
    19    10    32    1
    20    10    33    1
    21    11    12    1
    22    11    13    1
    23    11    14    1
    24    13    34    1
    25    13    35    1
    26    13    36    1
    27    14    15    1
    28    14    37    1
    29    14    38    1
    30    15    16   am
    31    15    39    1
    32    16    17    2
    33    16    18    1
    34    18    23    1
    35    18    19    2
    36    19    20    1
    37    19    21    1
    38    20    40    1
    39    20    41    1
    40    20    42    1
    41    21    22    2
    42    21    43    1
    43    22    23    1
    44    22    44    1
    45    24    25   ar
    46    24    45    1
    47    25    46    1
@<TRIPOS>SUBSTRUCTURE
     1 ZINC001500042809        1 TEMP              0 ****  ****    0 ROOT


##########                                Name:    ZINC000587344575
##########                DOCK_Rotatable_Bonds:                   7
##########                         Heavy_Atoms:                  30
##########                    Molecular_Weight:             408.475
##########                DOCK_Rotatable_Bonds:                   7
##########                       Formal_Charge:          -0.0100002
##########                     HBond_Acceptors:                   7
##########                        HBond_Donors:                   2
##########                         Heavy_Atoms:                  30
##########                          Grid_Score:          -32.142784
##########                     Grid_vdw_energy:          -31.604656
##########                      Grid_es_energy:           -0.538129
##########           Internal_energy_repulsive:           12.068020

@<TRIPOS>MOLECULE
ZINC000587344575
 55 57 1 0 0
SMALL
USER_CHARGES


@<TRIPOS>ATOM
      1 C1        -10.7410   -1.8482   58.4166 C.3     1  ZINC000587344575   -0.1200
      2 C2        -11.1538   -1.2939   57.0775 C.ar    1  ZINC000587344575    0.0000
      3 C3        -10.2954   -0.4793   56.3745 C.ar    1  ZINC000587344575   -0.1600
      4 C4        -10.6756    0.0325   55.1378 C.ar    1  ZINC000587344575    0.1800
      5 N5         -9.8032    0.8571   54.4281 N.am    1  ZINC000587344575   -0.6700
      6 C6         -9.5906    2.1236   54.8370 C.2     1  ZINC000587344575    0.5200
      7 O7        -10.1580    2.5461   55.8221 O.2     1  ZINC000587344575   -0.5000
      8 C8         -8.6478    3.0148   54.0702 C.3     1  ZINC000587344575   -0.1200
      9 H9         -8.4572    3.9317   54.6278 H       1  ZINC000587344575    0.1100
     10 C10        -9.2346    3.3453   52.6786 C.3     1  ZINC000587344575   -0.1200
     11 C11        -7.9898    3.2969   51.7573 C.3     1  ZINC000587344575    0.0400
     12 N12        -7.1977    2.1710   52.3150 N.3     1  ZINC000587344575   -0.4800
     13 C13        -5.8632    2.2574   51.9238 C.ar    1  ZINC000587344575    0.0700
     14 C14        -5.1275    3.4009   52.2151 C.ar    1  ZINC000587344575   -0.1200
     15 C15        -3.8082    3.4903   51.8297 C.ar    1  ZINC000587344575   -0.0700
     16 C16        -3.2076    2.4300   51.1454 C.ar    1  ZINC000587344575    0.0000
     17 C17        -1.8359    2.5204   50.7441 C.1     1  ZINC000587344575    0.2500
     18 N18        -0.7479    2.5920   50.4257 N.1     1  ZINC000587344575   -0.4000
     19 C19        -3.9489    1.2805   50.8537 C.ar    1  ZINC000587344575   -0.1000
     20 C20        -5.2669    1.1952   51.2465 C.ar    1  ZINC000587344575    0.1300
     21 F21        -5.9844    0.0854   50.9661 F       1  ZINC000587344575   -0.1200
     22 C22        -7.3263    2.2769   53.7869 C.3     1  ZINC000587344575    0.0500
     23 C23       -11.9238   -0.2770   54.6073 C.ar    1  ZINC000587344575   -0.1400
     24 C24       -12.7874   -1.0913   55.3051 C.ar    1  ZINC000587344575   -0.0600
     25 C25       -12.4066   -1.6112   56.5450 C.ar    1  ZINC000587344575   -0.1600
     26 C26       -13.3296   -2.4848   57.2957 C.2     1  ZINC000587344575    0.5600
     27 O27       -13.0729   -3.6653   57.4327 O.2     1  ZINC000587344575   -0.5300
     28 N28       -14.4569   -1.9739   57.8291 N.am    1  ZINC000587344575   -0.7200
     29 C29       -15.3739   -2.8415   58.5726 C.3     1  ZINC000587344575    0.1400
     30 C30       -15.0284   -2.7914   60.0622 C.3     1  ZINC000587344575   -0.1600
     31 C31       -16.8115   -2.3601   58.3661 C.3     1  ZINC000587344575   -0.1600
     32 H32       -10.3460   -2.8557   58.2867 H       1  ZINC000587344575    0.0800
     33 H33        -9.9724   -1.2100   58.8526 H       1  ZINC000587344575    0.0600
     34 H34       -11.6060   -1.8796   59.0791 H       1  ZINC000587344575    0.1000
     35 H35        -9.3256   -0.2368   56.7837 H       1  ZINC000587344575    0.1300
     36 H36        -9.3494    0.5191   53.6403 H       1  ZINC000587344575    0.4100
     37 H37        -9.9652    2.5936   52.3795 H       1  ZINC000587344575    0.0900
     38 H38        -9.6795    4.3403   52.6740 H       1  ZINC000587344575    0.0900
     39 H39        -8.2811    3.0895   50.7276 H       1  ZINC000587344575    0.0900
     40 H40        -7.4291    4.2296   51.8191 H       1  ZINC000587344575    0.0600
     41 H41        -5.5914    4.2204   52.7440 H       1  ZINC000587344575    0.1400
     42 H42        -3.2383    4.3793   52.0560 H       1  ZINC000587344575    0.1400
     43 H43        -3.4878    0.4594   50.3251 H       1  ZINC000587344575    0.1500
     44 H44        -6.4879    2.8429   54.1931 H       1  ZINC000587344575    0.0600
     45 H45        -7.3547    1.2813   54.2297 H       1  ZINC000587344575    0.1100
     46 H46       -12.2160    0.1222   53.6473 H       1  ZINC000587344575    0.1400
     47 H47       -13.7563   -1.3312   54.8928 H       1  ZINC000587344575    0.1300
     48 H48       -14.6611   -1.0319   57.7207 H       1  ZINC000587344575    0.4000
     49 H49       -15.2783   -3.8655   58.2117 H       1  ZINC000587344575    0.0900
     50 H50       -15.1240   -1.7673   60.4231 H       1  ZINC000587344575    0.0600
     51 H51       -15.7106   -3.4368   60.6153 H       1  ZINC000587344575    0.0700
     52 H52       -14.0042   -3.1343   60.2093 H       1  ZINC000587344575    0.0600
     53 H53       -16.9072   -1.3360   58.7270 H       1  ZINC000587344575    0.0600
     54 H54       -17.0577   -2.3957   57.3049 H       1  ZINC000587344575    0.0600
     55 H55       -17.4938   -3.0055   58.9193 H       1  ZINC000587344575    0.0700
@<TRIPOS>BOND
     1     1     2    1
     2     1    32    1
     3     1    33    1
     4     1    34    1
     5     2    25   ar
     6     2     3   ar
     7     3     4   ar
     8     3    35    1
     9     4     5    1
    10     4    23   ar
    11     5     6   am
    12     5    36    1
    13     6     7    2
    14     6     8    1
    15     8     9    1
    16     8    22    1
    17     8    10    1
    18    10    11    1
    19    10    37    1
    20    10    38    1
    21    11    12    1
    22    11    39    1
    23    11    40    1
    24    12    13    1
    25    12    22    1
    26    13    20   ar
    27    13    14   ar
    28    14    15   ar
    29    14    41    1
    30    15    16   ar
    31    15    42    1
    32    16    17    1
    33    16    19   ar
    34    17    18    3
    35    19    20   ar
    36    19    43    1
    37    20    21    1
    38    22    44    1
    39    22    45    1
    40    23    24   ar
    41    23    46    1
    42    24    25   ar
    43    24    47    1
    44    25    26    1
    45    26    27    2
    46    26    28   am
    47    28    29    1
    48    28    48    1
    49    29    30    1
    50    29    31    1
    51    29    49    1
    52    30    50    1
    53    30    51    1
    54    30    52    1
    55    31    53    1
    56    31    54    1
    57    31    55    1
@<TRIPOS>SUBSTRUCTURE
     1 ZINC000587344575        1 TEMP              0 ****  ****    0 ROOT


##########                                Name:    ZINC000538774026
##########                DOCK_Rotatable_Bonds:                  10
##########                         Heavy_Atoms:                  29
##########                    Molecular_Weight:             414.496
##########                DOCK_Rotatable_Bonds:                  10
##########                       Formal_Charge:            0.049999
##########                     HBond_Acceptors:                   9
##########                        HBond_Donors:                   2
##########                         Heavy_Atoms:                  29
##########                          Grid_Score:          -32.133652
##########                     Grid_vdw_energy:          -31.530954
##########                      Grid_es_energy:           -0.602697
##########           Internal_energy_repulsive:           25.996233

@<TRIPOS>MOLECULE
ZINC000538774026
 61 62 1 0 0
SMALL
USER_CHARGES


@<TRIPOS>ATOM
      1 C1         -4.1217    1.9486   50.1679 C.3     1  ZINC000538774026   -0.1500
      2 C2         -4.5538    2.2965   51.5938 C.3     1  ZINC000538774026   -0.1100
      3 C3         -3.3975    2.9821   52.3242 C.3     1  ZINC000538774026   -0.1400
      4 C4         -5.7577    3.2396   51.5460 C.3     1  ZINC000538774026    0.1400
      5 N5         -6.2271    3.5018   52.9088 N.pl3   1  ZINC000538774026   -0.3400
      6 N6         -5.8411    4.5753   53.7215 N.2     1  ZINC000538774026   -0.2500
      7 C7         -6.4694    4.4737   54.8647 C.2     1  ZINC000538774026    0.0500
      8 C8         -7.2800    3.3301   54.8225 C.2     1  ZINC000538774026    0.0800
      9 N9         -8.1178    2.8688   55.8564 N.am    1  ZINC000538774026   -0.6600
     10 C10        -7.5810    2.4074   57.0034 C.2     1  ZINC000538774026    0.7100
     11 O11        -6.3735    2.3910   57.1462 O.2     1  ZINC000538774026   -0.5700
     12 N12        -8.3826    1.9644   57.9921 N.am    1  ZINC000538774026   -0.7300
     13 C13        -7.7991    1.4614   59.2382 C.3     1  ZINC000538774026    0.1600
     14 C14        -8.7175    1.8139   60.4102 C.3     1  ZINC000538774026   -0.1300
     15 C15       -10.0894    1.1720   60.1939 C.3     1  ZINC000538774026   -0.1000
     16 C16        -9.9337   -0.3475   60.1071 C.3     1  ZINC000538774026   -0.0800
     17 C17       -11.2851   -0.9797   59.8941 C.2     1  ZINC000538774026    0.4700
     18 O18       -11.8090   -1.6010   60.7881 O.2     1  ZINC000538774026   -0.5000
     19 O19       -11.9066   -0.8523   58.7112 O.3     1  ZINC000538774026   -0.3500
     20 C20       -12.3607   -2.0736   58.0703 C.3     1  ZINC000538774026    0.1200
     21 C21       -11.3729   -3.2035   58.3680 C.3     1  ZINC000538774026   -0.1800
     22 C22       -13.7425   -2.4490   58.6093 C.3     1  ZINC000538774026   -0.1400
     23 C23       -12.4451   -1.8551   56.5584 C.3     1  ZINC000538774026   -0.1800
     24 C24        -9.0154   -0.6999   58.9352 C.3     1  ZINC000538774026   -0.1100
     25 C25        -7.6434   -0.0583   59.1515 C.3     1  ZINC000538774026   -0.1300
     26 C26        -7.1183    2.7501   53.6060 C.2     1  ZINC000538774026   -0.0500
     27 C27        -7.7972    1.4954   53.1205 C.3     1  ZINC000538774026    0.3500
     28 F28        -7.8806    0.5742   54.1701 F       1  ZINC000538774026   -0.1900
     29 F29        -9.0846    1.8063   52.6696 F       1  ZINC000538774026   -0.1900
     30 H30        -3.2640    1.2768   50.2018 H       1  ZINC000538774026    0.0600
     31 H31        -4.9455    1.4602   49.6475 H       1  ZINC000538774026    0.0600
     32 H32        -3.8476    2.8612   49.6385 H       1  ZINC000538774026    0.0600
     33 H33        -4.8279    1.3839   52.1232 H       1  ZINC000538774026    0.0800
     34 H34        -3.1235    3.8947   51.7948 H       1  ZINC000538774026    0.0600
     35 H35        -3.7054    3.2301   53.3400 H       1  ZINC000538774026    0.0600
     36 H36        -2.5398    2.3103   52.3582 H       1  ZINC000538774026    0.0600
     37 H37        -5.4652    4.1783   51.0755 H       1  ZINC000538774026    0.1000
     38 H38        -6.5584    2.7777   50.9685 H       1  ZINC000538774026    0.1000
     39 H39        -6.3789    5.1541   55.6985 H       1  ZINC000538774026    0.2100
     40 H40        -9.0810    2.8830   55.7430 H       1  ZINC000538774026    0.4100
     41 H41        -9.3459    1.9786   57.8788 H       1  ZINC000538774026    0.4000
     42 H42        -6.8218    1.9185   59.3924 H       1  ZINC000538774026    0.1000
     43 H43        -8.2834    1.4395   61.3372 H       1  ZINC000538774026    0.0800
     44 H44        -8.8285    2.8963   60.4720 H       1  ZINC000538774026    0.0800
     45 H45       -10.7437    1.4231   61.0288 H       1  ZINC000538774026    0.0700
     46 H46       -10.5236    1.5463   59.2668 H       1  ZINC000538774026    0.0700
     47 H47        -9.4996   -0.7218   61.0342 H       1  ZINC000538774026    0.1100
     48 H48       -11.3127   -3.3590   59.4452 H       1  ZINC000538774026    0.0600
     49 H49       -11.7137   -4.1202   57.8869 H       1  ZINC000538774026    0.0700
     50 H50       -10.3885   -2.9360   57.9841 H       1  ZINC000538774026    0.0800
     51 H51       -14.4462   -1.6441   58.3973 H       1  ZINC000538774026    0.0700
     52 H52       -14.0833   -3.3658   58.1283 H       1  ZINC000538774026    0.0800
     53 H53       -13.6824   -2.6046   59.6865 H       1  ZINC000538774026    0.0700
     54 H54       -11.4607   -1.5876   56.1744 H       1  ZINC000538774026    0.0800
     55 H55       -12.7860   -2.7719   56.0773 H       1  ZINC000538774026    0.0700
     56 H56       -13.1489   -1.0502   56.3463 H       1  ZINC000538774026    0.0600
     57 H57        -8.9044   -1.7825   58.8734 H       1  ZINC000538774026    0.0800
     58 H58        -9.4495   -0.3257   58.0081 H       1  ZINC000538774026    0.0600
     59 H59        -6.9892   -0.3093   58.3166 H       1  ZINC000538774026    0.0800
     60 H60        -7.2093   -0.4325   60.0786 H       1  ZINC000538774026    0.0900
     61 H61        -7.2204    1.0633   52.3028 H       1  ZINC000538774026    0.1300
@<TRIPOS>BOND
     1     1     2    1
     2     1    30    1
     3     1    31    1
     4     1    32    1
     5     2     3    1
     6     2     4    1
     7     2    33    1
     8     3    34    1
     9     3    35    1
    10     3    36    1
    11     4     5    1
    12     4    37    1
    13     4    38    1
    14     5    26    1
    15     5     6    1
    16     6     7    2
    17     7     8    1
    18     7    39    1
    19     8     9    1
    20     8    26    2
    21     9    10   am
    22     9    40    1
    23    10    11    2
    24    10    12   am
    25    12    13    1
    26    12    41    1
    27    13    25    1
    28    13    14    1
    29    13    42    1
    30    14    15    1
    31    14    43    1
    32    14    44    1
    33    15    16    1
    34    15    45    1
    35    15    46    1
    36    16    17    1
    37    16    24    1
    38    16    47    1
    39    17    18    2
    40    17    19    1
    41    19    20    1
    42    20    21    1
    43    20    22    1
    44    20    23    1
    45    21    48    1
    46    21    49    1
    47    21    50    1
    48    22    51    1
    49    22    52    1
    50    22    53    1
    51    23    54    1
    52    23    55    1
    53    23    56    1
    54    24    25    1
    55    24    57    1
    56    24    58    1
    57    25    59    1
    58    25    60    1
    59    26    27    1
    60    27    28    1
    61    27    29    1
    62    27    61    1
@<TRIPOS>SUBSTRUCTURE
     1 ZINC000538774026        1 TEMP              0 ****  ****    0 ROOT


##########                                Name:    ZINC000274225049
##########                DOCK_Rotatable_Bonds:                   6
##########                         Heavy_Atoms:                  25
##########                    Molecular_Weight:             380.895
##########                DOCK_Rotatable_Bonds:                   6
##########                       Formal_Charge:           0.0200006
##########                     HBond_Acceptors:                   7
##########                        HBond_Donors:                   2
##########                         Heavy_Atoms:                  25
##########                          Grid_Score:          -32.132275
##########                     Grid_vdw_energy:          -28.953876
##########                      Grid_es_energy:           -3.178398
##########           Internal_energy_repulsive:           13.488101

@<TRIPOS>MOLECULE
ZINC000274225049
 46 48 1 0 0
SMALL
USER_CHARGES


@<TRIPOS>ATOM
      1 C1         -6.4460    1.3270   51.9902 C.3     1  ZINC000274225049   -0.1600
      2 C2         -5.9682    2.7193   51.5733 C.3     1  ZINC000274225049    0.2000
      3 H3         -6.2433    3.4428   52.3408 H       1  ZINC000274225049    0.1100
      4 N4         -6.5969    3.0916   50.3036 N.am    1  ZINC000274225049   -0.7400
      5 C5         -7.6663    3.9119   50.2961 C.2     1  ZINC000274225049    0.7100
      6 O6         -8.1082    4.3440   51.3430 O.2     1  ZINC000274225049   -0.5800
      7 N7         -8.2457    4.2530   49.1280 N.am    1  ZINC000274225049   -0.7500
      8 C8         -9.4070    5.1460   49.1197 C.3     1  ZINC000274225049    0.1500
      9 C9        -10.6848    4.3196   48.9605 C.3     1  ZINC000274225049   -0.1000
     10 H10       -10.5414    3.5543   48.1978 H       1  ZINC000274225049    0.1000
     11 C11       -11.8597    5.2351   48.5742 C.3     1  ZINC000274225049   -0.1100
     12 C12       -13.1758    4.4525   48.7534 C.3     1  ZINC000274225049   -0.5900
     13 S13       -12.8261    3.2268   50.0654 S.o2    1  ZINC000274225049    2.3900
     14 O14       -13.5615    3.5644   51.2334 O.2     1  ZINC000274225049   -0.9300
     15 O15       -12.9209    1.9167   49.5232 O.2     1  ZINC000274225049   -0.9300
     16 C16       -11.0615    3.6588   50.3116 C.3     1  ZINC000274225049   -0.5900
     17 C17        -4.4703    2.7077   51.4079 C.ar    1  ZINC000274225049   -0.0700
     18 C18        -3.6387    3.0684   52.4813 C.ar    1  ZINC000274225049   -0.0300
     19 C19        -4.1744    3.4457   53.7247 C.ar    1  ZINC000274225049   -0.1100
     20 C20        -3.3380    3.7885   54.7420 C.ar    1  ZINC000274225049   -0.1100
     21 C21        -1.9549    3.7716   54.5707 C.ar    1  ZINC000274225049   -0.1100
     22 C22        -1.4005    3.4117   53.3809 C.ar    1  ZINC000274225049   -0.1000
     23 C23        -2.2322    3.0512   52.3071 C.ar    1  ZINC000274225049   -0.0400
     24 C24        -1.6964    2.6732   51.0633 C.ar    1  ZINC000274225049   -0.0300
     25 Cl25        0.0231    2.6437   50.8262 Cl      1  ZINC000274225049   -0.0600
     26 C26        -2.5343    2.3297   50.0453 C.ar    1  ZINC000274225049   -0.1000
     27 C27        -3.9164    2.3421   50.2191 C.ar    1  ZINC000274225049   -0.1000
     28 H28        -7.5293    1.3353   52.1100 H       1  ZINC000274225049    0.0700
     29 H29        -6.1709    0.6035   51.2227 H       1  ZINC000274225049    0.0700
     30 H30        -5.9782    1.0500   52.9350 H       1  ZINC000274225049    0.0800
     31 H31        -6.2436    2.7476   49.4682 H       1  ZINC000274225049    0.4000
     32 H32        -7.8938    3.9072   48.2928 H       1  ZINC000274225049    0.4000
     33 H33        -9.4466    5.6993   50.0581 H       1  ZINC000274225049    0.0800
     34 H34        -9.3210    5.8460   48.2886 H       1  ZINC000274225049    0.0800
     35 H35       -11.8659    6.1147   49.2179 H       1  ZINC000274225049    0.0900
     36 H36       -11.7562    5.5450   47.5343 H       1  ZINC000274225049    0.0900
     37 H37       -13.9757    5.1237   49.0660 H       1  ZINC000274225049    0.1400
     38 H38       -13.4452    3.9475   47.8258 H       1  ZINC000274225049    0.1400
     39 H39       -10.4646    2.7635   50.4854 H       1  ZINC000274225049    0.1400
     40 H40       -10.9474    4.3665   51.1327 H       1  ZINC000274225049    0.1400
     41 H41        -5.2442    3.4638   53.8719 H       1  ZINC000274225049    0.1300
     42 H42        -3.7522    4.0784   55.6964 H       1  ZINC000274225049    0.1300
     43 H43        -1.3135    4.0485   55.3942 H       1  ZINC000274225049    0.1300
     44 H44        -0.3271    3.4036   53.2627 H       1  ZINC000274225049    0.1300
     45 H45        -2.1207    2.0401   49.0906 H       1  ZINC000274225049    0.1300
     46 H46        -4.5584    2.0655   49.3960 H       1  ZINC000274225049    0.1300
@<TRIPOS>BOND
     1     1     2    1
     2     1    28    1
     3     1    29    1
     4     1    30    1
     5     2     3    1
     6     2     4    1
     7     2    17    1
     8     4     5   am
     9     4    31    1
    10     5     6    2
    11     5     7   am
    12     7     8    1
    13     7    32    1
    14     8     9    1
    15     8    33    1
    16     8    34    1
    17     9    10    1
    18     9    16    1
    19     9    11    1
    20    11    12    1
    21    11    35    1
    22    11    36    1
    23    12    13    1
    24    12    37    1
    25    12    38    1
    26    13    14    2
    27    13    15    2
    28    13    16    1
    29    16    39    1
    30    16    40    1
    31    17    27   ar
    32    17    18   ar
    33    18    23   ar
    34    18    19   ar
    35    19    20   ar
    36    19    41    1
    37    20    21   ar
    38    20    42    1
    39    21    22   ar
    40    21    43    1
    41    22    23   ar
    42    22    44    1
    43    23    24   ar
    44    24    25    1
    45    24    26   ar
    46    26    27   ar
    47    26    45    1
    48    27    46    1
@<TRIPOS>SUBSTRUCTURE
     1 ZINC000274225049        1 TEMP              0 ****  ****    0 ROOT


##########                                Name:    ZINC000746432885
##########                DOCK_Rotatable_Bonds:                  11
##########                         Heavy_Atoms:                  31
##########                    Molecular_Weight:              419.44
##########                DOCK_Rotatable_Bonds:                  11
##########                       Formal_Charge:           0.0199995
##########                     HBond_Acceptors:                   9
##########                        HBond_Donors:                   2
##########                         Heavy_Atoms:                  31
##########                          Grid_Score:          -32.056225
##########                     Grid_vdw_energy:          -28.763044
##########                      Grid_es_energy:           -3.293180
##########           Internal_energy_repulsive:           11.129313

@<TRIPOS>MOLECULE
ZINC000746432885
 52 54 1 0 0
SMALL
USER_CHARGES


@<TRIPOS>ATOM
      1 C1        -14.7248   -2.6147   55.9297 C.3     1  ZINC000746432885    0.0300
      2 O2        -14.4902   -2.2370   57.2878 O.3     1  ZINC000746432885   -0.3200
      3 C3        -13.1951   -2.0892   57.6723 C.ar    1  ZINC000746432885    0.1300
      4 C4        -12.3887   -3.2055   57.8407 C.ar    1  ZINC000746432885   -0.2000
      5 C5        -11.0726   -3.0527   58.2317 C.ar    1  ZINC000746432885   -0.0800
      6 C6        -10.5589   -1.7886   58.4554 C.ar    1  ZINC000746432885   -0.1400
      7 C7        -11.3606   -0.6746   58.2882 C.ar    1  ZINC000746432885   -0.0600
      8 C8        -10.7975    0.7018   58.5325 C.3     1  ZINC000746432885    0.2300
      9 N9        -10.2348    0.7664   59.8836 N.am    1  ZINC000746432885   -0.6900
     10 C10       -10.8031    1.5599   60.8130 C.2     1  ZINC000746432885    0.5200
     11 O11       -11.7820    2.2198   60.5311 O.2     1  ZINC000746432885   -0.5100
     12 C12       -10.2285    1.6272   62.1896 C.2     1  ZINC000746432885    0.5100
     13 O13       -10.9653    1.6746   63.1533 O.2     1  ZINC000746432885   -0.5100
     14 N14        -8.8919    1.6353   62.3623 N.am    1  ZINC000746432885   -0.6100
     15 C15        -8.3512    1.6970   63.6574 C.2     1  ZINC000746432885    0.0000
     16 C16        -8.2174    0.6558   64.5197 C.2     1  ZINC000746432885    0.0400
     17 N17        -7.6553    1.1323   65.6536 N.pl3   1  ZINC000746432885   -0.3800
     18 C18        -7.3312    0.3494   66.8486 C.3     1  ZINC000746432885    0.2500
     19 C19        -8.3655   -0.6767   67.0584 C.1     1  ZINC000746432885    0.1900
     20 N20        -9.1638   -1.4686   67.2203 N.1     1  ZINC000746432885   -0.3900
     21 N21        -7.4370    2.5054   65.4848 N.2     1  ZINC000746432885   -0.2800
     22 C22        -7.8473    2.8441   64.2896 C.2     1  ZINC000746432885    0.0700
     23 C23        -9.7153    0.9881   57.5234 C.ar    1  ZINC000746432885   -0.0500
     24 C24        -8.4529    1.3564   57.9502 C.ar    1  ZINC000746432885   -0.1500
     25 C25        -7.4578    1.6193   57.0269 C.ar    1  ZINC000746432885   -0.0700
     26 C26        -7.7229    1.5145   55.6752 C.ar    1  ZINC000746432885   -0.2000
     27 C27        -8.9888    1.1451   55.2444 C.ar    1  ZINC000746432885    0.1300
     28 O28        -9.2521    1.0413   53.9152 O.3     1  ZINC000746432885   -0.3200
     29 C29        -8.6422   -0.0456   53.2161 C.3     1  ZINC000746432885    0.0300
     30 C30        -9.9841    0.8768   56.1730 C.ar    1  ZINC000746432885   -0.1300
     31 C31       -12.6756   -0.8217   57.8914 C.ar    1  ZINC000746432885   -0.1300
     32 H32       -14.2494   -3.5756   55.7325 H       1  ZINC000746432885    0.0600
     33 H33       -15.7976   -2.6977   55.7558 H       1  ZINC000746432885    0.1000
     34 H34       -14.3063   -1.8590   55.2649 H       1  ZINC000746432885    0.0600
     35 H35       -12.7896   -4.1931   57.6668 H       1  ZINC000746432885    0.1300
     36 H36       -10.4443   -3.9213   58.3629 H       1  ZINC000746432885    0.1300
     37 H37        -9.5300   -1.6712   58.7617 H       1  ZINC000746432885    0.1200
     38 H38       -11.5914    1.4420   58.4337 H       1  ZINC000746432885    0.1200
     39 H39        -9.4531    0.2382   60.1093 H       1  ZINC000746432885    0.4200
     40 H40        -8.3032    1.5987   61.5922 H       1  ZINC000746432885    0.4200
     41 H41        -8.5078   -0.3677   64.3333 H       1  ZINC000746432885    0.1900
     42 H42        -6.3628   -0.1328   66.7154 H       1  ZINC000746432885    0.1300
     43 H43        -7.2925    1.0089   67.7157 H       1  ZINC000746432885    0.1500
     44 H44        -7.8106    3.8365   63.8652 H       1  ZINC000746432885    0.2100
     45 H45        -8.2437    1.4393   59.0065 H       1  ZINC000746432885    0.1200
     46 H46        -6.4725    1.9072   57.3628 H       1  ZINC000746432885    0.1300
     47 H47        -6.9453    1.7203   54.9545 H       1  ZINC000746432885    0.1300
     48 H48        -8.9341   -0.0118   52.1664 H       1  ZINC000746432885    0.1000
     49 H49        -7.5581    0.0346   53.2945 H       1  ZINC000746432885    0.0600
     50 H50        -8.9695   -0.9886   53.6541 H       1  ZINC000746432885    0.0600
     51 H51       -10.9703    0.5890   55.8401 H       1  ZINC000746432885    0.1400
     52 H52       -13.3015    0.0488   57.7610 H       1  ZINC000746432885    0.1300
@<TRIPOS>BOND
     1     1     2    1
     2     1    32    1
     3     1    33    1
     4     1    34    1
     5     2     3    1
     6     3    31   ar
     7     3     4   ar
     8     4     5   ar
     9     4    35    1
    10     5     6   ar
    11     5    36    1
    12     6     7   ar
    13     6    37    1
    14     7     8    1
    15     7    31   ar
    16     8     9    1
    17     8    23    1
    18     8    38    1
    19     9    10   am
    20     9    39    1
    21    10    11    2
    22    10    12    1
    23    12    13    2
    24    12    14   am
    25    14    15    1
    26    14    40    1
    27    15    22    1
    28    15    16    2
    29    16    17    1
    30    16    41    1
    31    17    18    1
    32    17    21    1
    33    18    19    1
    34    18    42    1
    35    18    43    1
    36    19    20    3
    37    21    22    2
    38    22    44    1
    39    23    30   ar
    40    23    24   ar
    41    24    25   ar
    42    24    45    1
    43    25    26   ar
    44    25    46    1
    45    26    27   ar
    46    26    47    1
    47    27    28    1
    48    27    30   ar
    49    28    29    1
    50    29    48    1
    51    29    49    1
    52    29    50    1
    53    30    51    1
    54    31    52    1
@<TRIPOS>SUBSTRUCTURE
     1 ZINC000746432885        1 TEMP              0 ****  ****    0 ROOT


##########                                Name:    ZINC000508571532
##########                DOCK_Rotatable_Bonds:                   9
##########                         Heavy_Atoms:                  30
##########                    Molecular_Weight:             422.407
##########                DOCK_Rotatable_Bonds:                   9
##########                       Formal_Charge:           0.0100001
##########                     HBond_Acceptors:                  10
##########                        HBond_Donors:                   0
##########                         Heavy_Atoms:                  30
##########                          Grid_Score:          -32.045006
##########                     Grid_vdw_energy:          -32.091492
##########                      Grid_es_energy:            0.046485
##########           Internal_energy_repulsive:           19.011799

@<TRIPOS>MOLECULE
ZINC000508571532
 51 53 1 0 0
SMALL
USER_CHARGES


@<TRIPOS>ATOM
      1 C1         -1.0384    2.5763   50.1896 C.3     1  ZINC000508571532    0.0300
      2 O2         -1.8332    3.2924   51.1368 O.3     1  ZINC000508571532   -0.3200
      3 C3         -3.0616    2.7837   51.4221 C.ar    1  ZINC000508571532    0.0900
      4 C4         -3.5005    1.6327   50.7849 C.ar    1  ZINC000508571532   -0.1700
      5 C5         -4.7483    1.1158   51.0746 C.ar    1  ZINC000508571532   -0.1100
      6 C6         -5.5620    1.7476   52.0033 C.ar    1  ZINC000508571532    0.0900
      7 O7         -6.7905    1.2391   52.2881 O.3     1  ZINC000508571532   -0.3100
      8 C8         -7.4484    1.7451   53.4515 C.3     1  ZINC000508571532    0.1500
      9 C9         -8.5582    0.8064   53.8493 C.2     1  ZINC000508571532    0.1700
     10 N10        -8.9548   -0.2445   53.1889 N.2     1  ZINC000508571532   -0.2500
     11 N11        -9.9225   -0.8169   53.8116 N.2     1  ZINC000508571532   -0.3000
     12 C12       -10.1974   -0.1566   54.9116 C.2     1  ZINC000508571532    0.3500
     13 N13       -11.1778   -0.4723   55.8388 N.3     1  ZINC000508571532   -0.4600
     14 C14       -12.4594    0.1514   55.4830 C.3     1  ZINC000508571532    0.0300
     15 C15       -11.3214   -1.9276   55.9782 C.3     1  ZINC000508571532    0.1100
     16 C16       -12.2207   -2.2339   57.1481 C.ar    1  ZINC000508571532   -0.0900
     17 C17       -13.5296   -2.6183   56.9318 C.ar    1  ZINC000508571532   -0.0600
     18 C18       -14.3553   -2.8990   58.0049 C.ar    1  ZINC000508571532   -0.1300
     19 C19       -13.8733   -2.7964   59.2964 C.ar    1  ZINC000508571532   -0.0700
     20 C20       -12.5646   -2.4127   59.5182 C.ar    1  ZINC000508571532   -0.1900
     21 C21       -11.7327   -2.1356   58.4433 C.ar    1  ZINC000508571532    0.1100
     22 O22       -10.4451   -1.7581   58.6588 O.3     1  ZINC000508571532   -0.3100
     23 C23       -10.2345   -0.6181   59.4943 C.3     1  ZINC000508571532    0.6000
     24 F24       -11.2941    0.2810   59.3324 F       1  ZINC000508571532   -0.1600
     25 F25       -10.1687   -1.0255   60.8311 F       1  ZINC000508571532   -0.1300
     26 F26        -9.0346    0.0062   59.1374 F       1  ZINC000508571532   -0.1600
     27 N27        -9.3319    0.8965   54.9732 N.pl3   1  ZINC000508571532   -0.4500
     28 C28        -9.2540    1.9173   56.0210 C.3     1  ZINC000508571532    0.0800
     29 C29        -5.1226    2.8979   52.6415 C.ar    1  ZINC000508571532   -0.1700
     30 C30        -3.8732    3.4126   52.3546 C.ar    1  ZINC000508571532   -0.1100
     31 H31        -0.0857    3.0882   50.0538 H       1  ZINC000508571532    0.1000
     32 H32        -0.8587    1.5656   50.5562 H       1  ZINC000508571532    0.0600
     33 H33        -1.5644    2.5289   49.2360 H       1  ZINC000508571532    0.0600
     34 H34        -2.8668    1.1407   50.0618 H       1  ZINC000508571532    0.1400
     35 H35        -5.0903    0.2199   50.5779 H       1  ZINC000508571532    0.1300
     36 H36        -6.7310    1.8264   54.2681 H       1  ZINC000508571532    0.0800
     37 H37        -7.8647    2.7287   53.2344 H       1  ZINC000508571532    0.1000
     38 H38       -12.8489   -0.3106   54.5759 H       1  ZINC000508571532    0.0600
     39 H39       -13.1705    0.0103   56.2969 H       1  ZINC000508571532    0.0800
     40 H40       -12.3095    1.2174   55.3122 H       1  ZINC000508571532    0.0700
     41 H41       -11.7573   -2.3386   55.0676 H       1  ZINC000508571532    0.0700
     42 H42       -10.3417   -2.3749   56.1461 H       1  ZINC000508571532    0.0900
     43 H43       -13.9085   -2.6992   55.9237 H       1  ZINC000508571532    0.1400
     44 H44       -15.3787   -3.1987   57.8337 H       1  ZINC000508571532    0.1300
     45 H45       -14.5203   -3.0158   60.1329 H       1  ZINC000508571532    0.1400
     46 H46       -12.1886   -2.3323   60.5274 H       1  ZINC000508571532    0.1400
     47 H47        -8.4959    1.6322   56.7505 H       1  ZINC000508571532    0.0900
     48 H48        -8.9874    2.8758   55.5755 H       1  ZINC000508571532    0.0900
     49 H49       -10.2209    2.0036   56.5168 H       1  ZINC000508571532    0.1000
     50 H50        -5.7561    3.3897   53.3648 H       1  ZINC000508571532    0.1400
     51 H51        -3.5310    4.3083   52.8516 H       1  ZINC000508571532    0.1400
@<TRIPOS>BOND
     1     1     2    1
     2     1    31    1
     3     1    32    1
     4     1    33    1
     5     2     3    1
     6     3    30   ar
     7     3     4   ar
     8     4     5   ar
     9     4    34    1
    10     5     6   ar
    11     5    35    1
    12     6     7    1
    13     6    29   ar
    14     7     8    1
    15     8     9    1
    16     8    36    1
    17     8    37    1
    18     9    27    1
    19     9    10    2
    20    10    11    1
    21    11    12    2
    22    12    13    1
    23    12    27    1
    24    13    14    1
    25    13    15    1
    26    14    38    1
    27    14    39    1
    28    14    40    1
    29    15    16    1
    30    15    41    1
    31    15    42    1
    32    16    21   ar
    33    16    17   ar
    34    17    18   ar
    35    17    43    1
    36    18    19   ar
    37    18    44    1
    38    19    20   ar
    39    19    45    1
    40    20    21   ar
    41    20    46    1
    42    21    22    1
    43    22    23    1
    44    23    24    1
    45    23    25    1
    46    23    26    1
    47    27    28    1
    48    28    47    1
    49    28    48    1
    50    28    49    1
    51    29    30   ar
    52    29    50    1
    53    30    51    1
@<TRIPOS>SUBSTRUCTURE
     1 ZINC000508571532        1 TEMP              0 ****  ****    0 ROOT


##########                                Name:    ZINC000460163972
##########                DOCK_Rotatable_Bonds:                   7
##########                         Heavy_Atoms:                  28
##########                    Molecular_Weight:             408.469
##########                DOCK_Rotatable_Bonds:                   7
##########                       Formal_Charge:          -0.0100001
##########                     HBond_Acceptors:                   8
##########                        HBond_Donors:                   2
##########                         Heavy_Atoms:                  28
##########                          Grid_Score:          -32.025860
##########                     Grid_vdw_energy:          -29.794891
##########                      Grid_es_energy:           -2.230970
##########           Internal_energy_repulsive:           48.747765

@<TRIPOS>MOLECULE
ZINC000460163972
 50 52 1 0 0
SMALL
USER_CHARGES


@<TRIPOS>ATOM
      1 C1        -10.2959   -0.8518   56.8238 C.3     1  ZINC000460163972   -0.1400
      2 C2         -9.5785   -0.0325   55.7822 C.ar    1  ZINC000460163972    0.0100
      3 C3         -9.8360   -0.2444   54.4403 C.ar    1  ZINC000460163972   -0.1300
      4 C4         -9.1801    0.5049   53.4829 C.ar    1  ZINC000460163972   -0.0600
      5 C5         -8.2618    1.4719   53.8694 C.ar    1  ZINC000460163972    0.1100
      6 N6         -7.5960    2.2329   52.9022 N.am    1  ZINC000460163972   -0.6700
      7 C7         -6.8664    1.6213   51.9482 C.2     1  ZINC000460163972    0.5200
      8 O8         -6.7869    0.4111   51.9282 O.2     1  ZINC000460163972   -0.5100
      9 C9         -6.1493    2.4408   50.9065 C.3     1  ZINC000460163972   -0.0700
     10 H10        -6.1227    1.8903   49.9662 H       1  ZINC000460163972    0.1200
     11 C11        -6.8884    3.7647   50.7016 C.3     1  ZINC000460163972   -0.1500
     12 C12        -4.7413    2.7174   51.3667 C.ar    1  ZINC000460163972   -0.0600
     13 C13        -4.5229    3.4362   52.5269 C.ar    1  ZINC000460163972   -0.0700
     14 C14        -3.2320    3.6914   52.9511 C.ar    1  ZINC000460163972   -0.1200
     15 C15        -2.1570    3.2266   52.2142 C.ar    1  ZINC000460163972    0.0700
     16 F16        -0.8952    3.4751   52.6283 F       1  ZINC000460163972   -0.1300
     17 C17        -2.3761    2.5050   51.0503 C.ar    1  ZINC000460163972    0.0700
     18 F18        -1.3281    2.0502   50.3291 F       1  ZINC000460163972   -0.1300
     19 C19        -3.6693    2.2472   50.6310 C.ar    1  ZINC000460163972   -0.1200
     20 C20        -8.0057    1.6826   55.2182 C.ar    1  ZINC000460163972    0.0000
     21 C21        -7.0101    2.7316   55.6421 C.3     1  ZINC000460163972   -0.1500
     22 C22        -8.6682    0.9336   56.1705 C.ar    1  ZINC000460163972   -0.6700
     23 S23        -8.3446    1.2005   57.8818 S.o2    1  ZINC000460163972    2.7000
     24 O24        -9.5267    0.8278   58.5767 O.2     1  ZINC000460163972   -0.9500
     25 O25        -7.0735    0.6224   58.1448 O.2     1  ZINC000460163972   -0.9500
     26 N26        -8.1697    2.8330   58.0987 N.am    1  ZINC000460163972   -1.0900
     27 C27        -9.2720    3.7384   57.7652 C.3     1  ZINC000460163972    0.0800
     28 C28       -10.4022    3.8817   58.7866 C.3     1  ZINC000460163972   -0.1800
     29 C29        -9.4036    5.0233   58.5854 C.3     1  ZINC000460163972   -0.1900
     30 H30       -11.1688   -0.3040   57.1791 H       1  ZINC000460163972    0.1000
     31 H31       -10.6141   -1.7981   56.3862 H       1  ZINC000460163972    0.0800
     32 H32        -9.6238   -1.0457   57.6597 H       1  ZINC000460163972    0.0700
     33 H33       -10.5504   -0.9967   54.1403 H       1  ZINC000460163972    0.1400
     34 H34        -9.3812    0.3384   52.4349 H       1  ZINC000460163972    0.1600
     35 H35        -7.6595    3.2007   52.9182 H       1  ZINC000460163972    0.4100
     36 H36        -6.3697    4.3574   49.9482 H       1  ZINC000460163972    0.0800
     37 H37        -7.9069    3.5646   50.3688 H       1  ZINC000460163972    0.0700
     38 H38        -6.9151    4.3153   51.6420 H       1  ZINC000460163972    0.0700
     39 H39        -5.3615    3.7992   53.1025 H       1  ZINC000460163972    0.1400
     40 H40        -3.0626    4.2536   53.8575 H       1  ZINC000460163972    0.1500
     41 H41        -3.8413    1.6851   49.7249 H       1  ZINC000460163972    0.1500
     42 H42        -7.5370    3.6521   55.8935 H       1  ZINC000460163972    0.1000
     43 H43        -6.4593    2.3784   56.5139 H       1  ZINC000460163972    0.1000
     44 H44        -6.3139    2.9228   54.8255 H       1  ZINC000460163972    0.0700
     45 H45        -7.3374    3.1896   58.4466 H       1  ZINC000460163972    0.4200
     46 H46        -9.5385    3.7858   56.7094 H       1  ZINC000460163972    0.1300
     47 H47       -11.4125    4.0233   58.4029 H       1  ZINC000460163972    0.1100
     48 H48       -10.3255    3.3023   59.7067 H       1  ZINC000460163972    0.1000
     49 H49        -8.6699    5.1949   59.3731 H       1  ZINC000460163972    0.1000
     50 H50        -9.7570    5.9159   58.0692 H       1  ZINC000460163972    0.1000
@<TRIPOS>BOND
     1     1     2    1
     2     1    30    1
     3     1    31    1
     4     1    32    1
     5     2    22   ar
     6     2     3   ar
     7     3     4   ar
     8     3    33    1
     9     4     5   ar
    10     4    34    1
    11     5     6    1
    12     5    20   ar
    13     6     7   am
    14     6    35    1
    15     7     8    2
    16     7     9    1
    17     9    10    1
    18     9    11    1
    19     9    12    1
    20    11    36    1
    21    11    37    1
    22    11    38    1
    23    12    19   ar
    24    12    13   ar
    25    13    14   ar
    26    13    39    1
    27    14    15   ar
    28    14    40    1
    29    15    16    1
    30    15    17   ar
    31    17    18    1
    32    17    19   ar
    33    19    41    1
    34    20    21    1
    35    20    22   ar
    36    21    42    1
    37    21    43    1
    38    21    44    1
    39    22    23    1
    40    23    24    2
    41    23    25    2
    42    23    26   am
    43    26    27    1
    44    26    45    1
    45    27    29    1
    46    27    28    1
    47    27    46    1
    48    28    29    1
    49    28    47    1
    50    28    48    1
    51    29    49    1
    52    29    50    1
@<TRIPOS>SUBSTRUCTURE
     1 ZINC000460163972        1 TEMP              0 ****  ****    0 ROOT


##########                                Name:    ZINC000011972961
##########                DOCK_Rotatable_Bonds:                   6
##########                         Heavy_Atoms:                  28
##########                    Molecular_Weight:             397.501
##########                DOCK_Rotatable_Bonds:                   6
##########                       Formal_Charge:                   0
##########                     HBond_Acceptors:                   8
##########                        HBond_Donors:                   1
##########                         Heavy_Atoms:                  28
##########                          Grid_Score:          -32.025597
##########                     Grid_vdw_energy:          -32.025597
##########                      Grid_es_energy:            0.000000
##########           Internal_energy_repulsive:           22.883202

@<TRIPOS>MOLECULE
ZINC000011972961
 51 54 1 0 0
SMALL
USER_CHARGES


@<TRIPOS>ATOM
      1 C1         -4.9540    3.7985   53.4261 C.3        P      0.0000
      2 C2         -4.7096    2.9876   52.1796 C.2        P      0.0000
      3 C3         -5.6924    2.3310   51.5504 C.2        P      0.0000
      4 C4         -7.0958    2.3160   51.9808 C.2        P      0.0000
      5 O5         -7.5277    1.3714   52.6147 O.2        P      0.0000
      6 N6         -7.9058    3.3485   51.6740 N.am       P      0.0000
      7 C7         -9.3064    3.3336   52.1035 C.3        P      0.0000
      8 C8         -7.3858    4.4859   50.9109 C.3        P      0.0000
      9 H9         -6.2959    4.4746   50.9061 H          P      0.0000
     10 C10        -7.9342    4.4633   49.4633 C.3        P      0.0000
     11 C11        -9.1199    5.4579   49.5498 C.3        P      0.0000
     12 O12        -8.6371    6.4803   50.4476 O.3        P      0.0000
     13 C13        -7.9090    5.8121   51.4956 C.3        P      0.0000
     14 S14        -5.0715    1.4910   50.1397 S.3        P      0.0000
     15 C15        -3.4410    2.0716   50.4503 C.ar       P      0.0000
     16 N16        -2.2926    1.8732   49.7933 N.ar       P      0.0000
     17 C17        -1.1708    2.4141   50.2102 C.ar       P      0.0000
     18 N18        -1.1143    3.1748   51.2882 N.ar       P      0.0000
     19 C19        -2.1967    3.4308   52.0071 C.ar       P      0.0000
     20 N20        -2.1194    4.2280   53.1310 N.pl3      P      0.0000
     21 C21        -0.8672    4.9148   53.4573 C.3        P      0.0000
     22 C22        -0.2384    4.2668   54.6637 C.ar       P      0.0000
     23 N23        -0.9741    3.5114   55.4554 N.ar       P      0.0000
     24 C24        -0.4666    2.9242   56.5217 C.ar       P      0.0000
     25 C25        -1.3511    2.0708   57.3938 C.3        P      0.0000
     26 C26         0.8667    3.0820   56.8483 C.ar       P      0.0000
     27 C27         1.6720    3.8692   56.0393 C.ar       P      0.0000
     28 C28         1.1043    4.4665   54.9245 C.ar       P      0.0000
     29 C29        -3.4421    2.8752   51.5989 C.ar       P      0.0000
     30 H30        -4.8245    4.8574   53.2019 H          P      0.0000
     31 H31        -5.9700    3.6236   53.7800 H          P      0.0000
     32 H32        -4.2441    3.5012   54.1980 H          P      0.0000
     33 H33        -9.3532    3.3770   53.1916 H          P      0.0000
     34 H34        -9.8246    4.1953   51.6829 H          P      0.0000
     35 H35        -9.7834    2.4173   51.7556 H          P      0.0000
     36 H36        -7.1822    4.8150   48.7569 H          P      0.0000
     37 H37        -8.2820    3.4658   49.1946 H          P      0.0000
     38 H38        -9.3386    5.8804   48.5691 H          P      0.0000
     39 H39       -10.0017    4.9688   49.9636 H          P      0.0000
     40 H40        -8.5719    5.6101   52.3368 H          P      0.0000
     41 H41        -7.0736    6.4326   51.8202 H          P      0.0000
     42 H42        -0.2641    2.2303   49.6531 H          P      0.0000
     43 H43        -2.8943    4.3336   53.7049 H          P      0.0000
     44 H44        -0.1840    4.8466   52.6107 H          P      0.0000
     45 H45        -1.0735    5.9630   53.6741 H          P      0.0000
     46 H46        -1.3278    1.0410   57.0377 H          P      0.0000
     47 H47        -0.9918    2.1078   58.4223 H          P      0.0000
     48 H48        -2.3735    2.4465   57.3524 H          P      0.0000
     49 H49         1.2764    2.5984   57.7229 H          P      0.0000
     50 H50         2.7177    4.0105   56.2699 H          P      0.0000
     51 H51         1.7018    5.0858   54.2720 H          P      0.0000
@<TRIPOS>BOND
     1     1     2    1
     2     1    30    1
     3     1    31    1
     4     1    32    1
     5     2    29    1
     6     2     3    2
     7     3     4    1
     8     3    14    1
     9     4     5    2
    10     4     6   am
    11     6     7    1
    12     6     8    1
    13     7    33    1
    14     7    34    1
    15     7    35    1
    16     8     9    1
    17     8    13    1
    18     8    10    1
    19    10    11    1
    20    10    36    1
    21    10    37    1
    22    11    12    1
    23    11    38    1
    24    11    39    1
    25    12    13    1
    26    13    40    1
    27    13    41    1
    28    14    15    1
    29    15    29   ar
    30    15    16   ar
    31    16    17   ar
    32    17    18   ar
    33    17    42    1
    34    18    19   ar
    35    19    20    1
    36    19    29   ar
    37    20    21    1
    38    20    43    1
    39    21    22    1
    40    21    44    1
    41    21    45    1
    42    22    28   ar
    43    22    23   ar
    44    23    24   ar
    45    24    25    1
    46    24    26   ar
    47    25    46    1
    48    25    47    1
    49    25    48    1
    50    26    27   ar
    51    26    49    1
    52    27    28   ar
    53    27    50    1
    54    28    51    1
@<TRIPOS>SUBSTRUCTURE
     1 P        1 TEMP              0 ****  ****    0 ROOT


##########                                Name:    ZINC000151991096
##########                DOCK_Rotatable_Bonds:                   8
##########                         Heavy_Atoms:                  27
##########                    Molecular_Weight:             364.444
##########                DOCK_Rotatable_Bonds:                   8
##########                       Formal_Charge:          -0.0200004
##########                     HBond_Acceptors:                   5
##########                        HBond_Donors:                   1
##########                         Heavy_Atoms:                  27
##########                          Grid_Score:          -32.021664
##########                     Grid_vdw_energy:          -32.004463
##########                      Grid_es_energy:           -0.017201
##########           Internal_energy_repulsive:           18.462461

@<TRIPOS>MOLECULE
ZINC000151991096
 51 53 1 0 0
SMALL
USER_CHARGES


@<TRIPOS>ATOM
      1 C1        -10.6742   -1.6047   55.8648 C.3     1  ZINC000151991096   -0.1500
      2 C2        -10.1832   -0.1932   55.5366 C.3     1  ZINC000151991096   -0.1300
      3 C3        -10.3770    0.0800   54.0437 C.3     1  ZINC000151991096    0.1400
      4 H4        -10.4407   -0.8663   53.5064 H       1  ZINC000151991096    0.1000
      5 N5         -9.2407    0.8536   53.5373 N.am    1  ZINC000151991096   -0.7200
      6 C6         -8.2508    0.2348   52.8637 C.2     1  ZINC000151991096    0.5600
      7 O7         -8.3002   -0.9657   52.6777 O.2     1  ZINC000151991096   -0.5300
      8 C8         -7.1068    1.0147   52.3519 C.ar    1  ZINC000151991096   -0.1700
      9 C9         -6.1294    0.3935   51.5702 C.ar    1  ZINC000151991096   -0.0500
     10 C10        -5.0639    1.1246   51.0943 C.ar    1  ZINC000151991096   -0.1600
     11 C11        -4.9600    2.4787   51.3906 C.ar    1  ZINC000151991096    0.1600
     12 O12        -3.9087    3.1958   50.9194 O.3     1  ZINC000151991096   -0.3000
     13 C13        -2.7322    3.2315   51.7299 C.3     1  ZINC000151991096    0.0900
     14 C14        -1.5516    2.7565   50.9227 C.ar    1  ZINC000151991096   -0.0500
     15 C15        -1.7508    2.0136   49.7778 C.ar    1  ZINC000151991096   -0.1000
     16 C16        -0.6677    1.5767   49.0355 C.ar    1  ZINC000151991096   -0.0900
     17 C17         0.6212    1.8807   49.4357 C.ar    1  ZINC000151991096   -0.1200
     18 C18         0.8349    2.6229   50.5789 C.ar    1  ZINC000151991096   -0.0700
     19 C19        -0.2533    3.0723   51.3292 C.ar    1  ZINC000151991096   -0.0200
     20 C20        -0.0390    3.8432   52.5169 C.1     1  ZINC000151991096    0.2400
     21 N21         0.1311    4.4547   53.4590 N.1     1  ZINC000151991096   -0.4000
     22 C22        -5.9303    3.1002   52.1680 C.ar    1  ZINC000151991096   -0.2200
     23 C23        -7.0016    2.3772   52.6432 C.ar    1  ZINC000151991096   -0.0100
     24 C24       -11.6683    0.8734   53.8339 C.3     1  ZINC000151991096    0.0700
     25 H25       -11.9427    0.8606   52.7791 H       1  ZINC000151991096    0.1000
     26 C26       -11.4707    2.3299   54.3059 C.3     1  ZINC000151991096   -0.1500
     27 C27       -12.8322    2.6444   54.9836 C.3     1  ZINC000151991096   -0.1600
     28 C28       -13.1893    1.2607   55.5824 C.3     1  ZINC000151991096    0.0500
     29 O29       -12.7225    0.3018   54.6172 O.3     1  ZINC000151991096   -0.3700
     30 H30       -10.1046   -2.3313   55.2854 H       1  ZINC000151991096    0.0500
     31 H31       -10.5362   -1.7992   56.9283 H       1  ZINC000151991096    0.0500
     32 H32       -11.7317   -1.6889   55.6142 H       1  ZINC000151991096    0.0600
     33 H33       -10.7529    0.5335   56.1158 H       1  ZINC000151991096    0.0700
     34 H34        -9.1258   -0.1089   55.7871 H       1  ZINC000151991096    0.0700
     35 H35        -9.2008    1.8112   53.6867 H       1  ZINC000151991096    0.4000
     36 H36        -6.2092   -0.6585   51.3398 H       1  ZINC000151991096    0.1300
     37 H37        -4.3077    0.6453   50.4903 H       1  ZINC000151991096    0.1400
     38 H38        -2.5544    4.2525   52.0675 H       1  ZINC000151991096    0.0800
     39 H39        -2.8667    2.5811   52.5942 H       1  ZINC000151991096    0.0800
     40 H40        -2.7544    1.7722   49.4601 H       1  ZINC000151991096    0.1400
     41 H41        -0.8295    0.9954   48.1398 H       1  ZINC000151991096    0.1400
     42 H42         1.4619    1.5359   48.8521 H       1  ZINC000151991096    0.1400
     43 H43         1.8417    2.8592   50.8904 H       1  ZINC000151991096    0.1400
     44 H44        -5.8458    4.1524   52.3963 H       1  ZINC000151991096    0.1300
     45 H45        -7.7552    2.8609   53.2469 H       1  ZINC000151991096    0.1400
     46 H46       -10.6545    2.3972   55.0253 H       1  ZINC000151991096    0.0800
     47 H47       -11.2973    2.9924   53.4579 H       1  ZINC000151991096    0.0900
     48 H48       -12.7174    3.3936   55.7669 H       1  ZINC000151991096    0.0800
     49 H49       -13.5738    2.9576   54.2487 H       1  ZINC000151991096    0.0800
     50 H50       -12.6798    1.1180   56.5354 H       1  ZINC000151991096    0.0600
     51 H51       -14.2678    1.1713   55.7120 H       1  ZINC000151991096    0.0900
@<TRIPOS>BOND
     1     1     2    1
     2     1    30    1
     3     1    31    1
     4     1    32    1
     5     2     3    1
     6     2    33    1
     7     2    34    1
     8     3     4    1
     9     3     5    1
    10     3    24    1
    11     5     6   am
    12     5    35    1
    13     6     7    2
    14     6     8    1
    15     8    23   ar
    16     8     9   ar
    17     9    10   ar
    18     9    36    1
    19    10    11   ar
    20    10    37    1
    21    11    12    1
    22    11    22   ar
    23    12    13    1
    24    13    14    1
    25    13    38    1
    26    13    39    1
    27    14    19   ar
    28    14    15   ar
    29    15    16   ar
    30    15    40    1
    31    16    17   ar
    32    16    41    1
    33    17    18   ar
    34    17    42    1
    35    18    19   ar
    36    18    43    1
    37    19    20    1
    38    20    21    3
    39    22    23   ar
    40    22    44    1
    41    23    45    1
    42    24    25    1
    43    24    29    1
    44    24    26    1
    45    26    27    1
    46    26    46    1
    47    26    47    1
    48    27    28    1
    49    27    48    1
    50    27    49    1
    51    28    29    1
    52    28    50    1
    53    28    51    1
@<TRIPOS>SUBSTRUCTURE
     1 ZINC000151991096        1 TEMP              0 ****  ****    0 ROOT


##########                                Name:    ZINC000914736341
##########                DOCK_Rotatable_Bonds:                   7
##########                         Heavy_Atoms:                  27
##########                    Molecular_Weight:             384.905
##########                DOCK_Rotatable_Bonds:                   7
##########                       Formal_Charge:                0.02
##########                     HBond_Acceptors:                   5
##########                        HBond_Donors:                   1
##########                         Heavy_Atoms:                  27
##########                          Grid_Score:          -32.012100
##########                     Grid_vdw_energy:          -31.037386
##########                      Grid_es_energy:           -0.974715
##########           Internal_energy_repulsive:           23.880564

@<TRIPOS>MOLECULE
ZINC000914736341
 52 54 1 0 0
SMALL
USER_CHARGES


@<TRIPOS>ATOM
      1 C1          0.8732    0.4369   60.2232 C.3     1  ZINC000914736341   -0.1400
      2 C2          0.4365    1.7485   60.8791 C.3     1  ZINC000914736341   -0.0300
      3 C3          1.6301    2.7025   60.9557 C.3     1  ZINC000914736341   -0.1400
      4 C4         -0.6759    2.3892   60.0466 C.3     1  ZINC000914736341    0.1300
      5 N5         -0.2901    2.3890   58.6334 N.am    1  ZINC000914736341   -0.7200
      6 C6         -1.2321    2.5155   57.6777 C.2     1  ZINC000914736341    0.5300
      7 O7         -2.3991    2.6280   57.9877 O.2     1  ZINC000914736341   -0.5300
      8 C8         -0.8351    2.5171   56.2239 C.3     1  ZINC000914736341   -0.1200
      9 H9         -0.8730    1.5094   55.8102 H       1  ZINC000914736341    0.1200
     10 C10         0.5670    3.1409   56.0339 C.3     1  ZINC000914736341   -0.1400
     11 C11         0.4584    3.9087   54.7349 C.2     1  ZINC000914736341    0.5200
     12 O12         1.4002    4.3095   54.0842 O.2     1  ZINC000914736341   -0.5200
     13 N13        -0.8336    4.0816   54.4067 N.am    1  ZINC000914736341   -0.6100
     14 C14        -1.2945    4.7771   53.2025 C.3     1  ZINC000914736341    0.1600
     15 C15        -2.1450    3.8451   52.3785 C.ar    1  ZINC000914736341   -0.1000
     16 C16        -3.5038    3.7583   52.6152 C.ar    1  ZINC000914736341   -0.0800
     17 C17        -4.2842    2.9033   51.8593 C.ar    1  ZINC000914736341   -0.1100
     18 C18        -3.7060    2.1344   50.8669 C.ar    1  ZINC000914736341   -0.1000
     19 C19        -2.3470    2.2203   50.6292 C.ar    1  ZINC000914736341   -0.1100
     20 C20        -1.5666    3.0802   51.3810 C.ar    1  ZINC000914736341   -0.0300
     21 Cl21        0.1402    3.1886   51.0831 Cl      1  ZINC000914736341   -0.0600
     22 C22        -1.7236    3.4830   55.4093 C.3     1  ZINC000914736341    0.1000
     23 C23        -0.0737    1.4694   62.2693 C.ar    1  ZINC000914736341   -0.0700
     24 C24        -1.0441    2.2817   62.8254 C.ar    1  ZINC000914736341   -0.1200
     25 C25        -1.5121    2.0257   64.1008 C.ar    1  ZINC000914736341   -0.1200
     26 C26        -1.0098    0.9571   64.8197 C.ar    1  ZINC000914736341   -0.1200
     27 C27        -0.0400    0.1443   64.2632 C.ar    1  ZINC000914736341   -0.1200
     28 C28         0.4248    0.3978   62.9863 C.ar    1  ZINC000914736341   -0.1100
     29 H29         1.6658   -0.0196   60.8162 H       1  ZINC000914736341    0.0600
     30 H30         0.0229   -0.2427   60.1686 H       1  ZINC000914736341    0.0600
     31 H31         1.2422    0.6387   59.2176 H       1  ZINC000914736341    0.0600
     32 H32         1.9991    2.9044   59.9501 H       1  ZINC000914736341    0.0600
     33 H33         1.3190    3.6370   61.4228 H       1  ZINC000914736341    0.0600
     34 H34         2.4227    2.2461   61.5487 H       1  ZINC000914736341    0.0600
     35 H35        -1.5971    1.8202   60.1720 H       1  ZINC000914736341    0.0700
     36 H36        -0.8342    3.4148   60.3799 H       1  ZINC000914736341    0.0700
     37 H37         0.6432    2.2978   58.3854 H       1  ZINC000914736341    0.4000
     38 H38         0.7991    3.8158   56.8577 H       1  ZINC000914736341    0.1100
     39 H39         1.3239    2.3607   55.9538 H       1  ZINC000914736341    0.1100
     40 H40        -1.8835    5.6485   53.4893 H       1  ZINC000914736341    0.1000
     41 H41        -0.4335    5.0975   52.6159 H       1  ZINC000914736341    0.1000
     42 H42        -3.9560    4.3583   53.3909 H       1  ZINC000914736341    0.1400
     43 H43        -5.3461    2.8359   52.0446 H       1  ZINC000914736341    0.1300
     44 H44        -4.3160    1.4661   50.2772 H       1  ZINC000914736341    0.1300
     45 H45        -1.8952    1.6195   49.8537 H       1  ZINC000914736341    0.1400
     46 H46        -2.5285    2.9346   54.9197 H       1  ZINC000914736341    0.1000
     47 H47        -2.1338    4.2561   56.0591 H       1  ZINC000914736341    0.0900
     48 H48        -1.4365    3.1164   62.2638 H       1  ZINC000914736341    0.1300
     49 H49        -2.2697    2.6607   64.5355 H       1  ZINC000914736341    0.1200
     50 H50        -1.3750    0.7576   65.8164 H       1  ZINC000914736341    0.1200
     51 H51         0.3525   -0.6902   64.8251 H       1  ZINC000914736341    0.1200
     52 H52         1.1825   -0.2373   62.5515 H       1  ZINC000914736341    0.1200
@<TRIPOS>BOND
     1     1     2    1
     2     1    29    1
     3     1    30    1
     4     1    31    1
     5     2     3    1
     6     2     4    1
     7     2    23    1
     8     3    32    1
     9     3    33    1
    10     3    34    1
    11     4     5    1
    12     4    35    1
    13     4    36    1
    14     5     6   am
    15     5    37    1
    16     6     7    2
    17     6     8    1
    18     8     9    1
    19     8    22    1
    20     8    10    1
    21    10    11    1
    22    10    38    1
    23    10    39    1
    24    11    12    2
    25    11    13   am
    26    13    14    1
    27    13    22    1
    28    14    15    1
    29    14    40    1
    30    14    41    1
    31    15    20   ar
    32    15    16   ar
    33    16    17   ar
    34    16    42    1
    35    17    18   ar
    36    17    43    1
    37    18    19   ar
    38    18    44    1
    39    19    20   ar
    40    19    45    1
    41    20    21    1
    42    22    46    1
    43    22    47    1
    44    23    28   ar
    45    23    24   ar
    46    24    25   ar
    47    24    48    1
    48    25    26   ar
    49    25    49    1
    50    26    27   ar
    51    26    50    1
    52    27    28   ar
    53    27    51    1
    54    28    52    1
@<TRIPOS>SUBSTRUCTURE
     1 ZINC000914736341        1 TEMP              0 ****  ****    0 ROOT


##########                                Name:    ZINC000740930783
##########                DOCK_Rotatable_Bonds:                  11
##########                         Heavy_Atoms:                  27
##########                    Molecular_Weight:             413.257
##########                DOCK_Rotatable_Bonds:                  11
##########                       Formal_Charge:          -0.0100004
##########                     HBond_Acceptors:                   9
##########                        HBond_Donors:                   4
##########                         Heavy_Atoms:                  27
##########                          Grid_Score:          -31.978853
##########                     Grid_vdw_energy:          -31.123360
##########                      Grid_es_energy:           -0.855494
##########           Internal_energy_repulsive:           13.184887

@<TRIPOS>MOLECULE
ZINC000740930783
 45 46 1 0 0
SMALL
USER_CHARGES


@<TRIPOS>ATOM
      1 C1          3.1682    4.1116   51.9614 C.3     1  ZINC000740930783    0.0200
      2 O2          2.5731    2.8125   51.9818 O.3     1  ZINC000740930783   -0.3000
      3 C3          1.4692    2.6269   51.2095 C.ar    1  ZINC000740930783    0.1200
      4 C4          0.2269    3.0089   51.6774 C.ar    1  ZINC000740930783   -0.1400
      5 C5         -0.9057    2.8174   50.8814 C.ar    1  ZINC000740930783   -0.0800
      6 C6         -2.2353    3.2244   51.3768 C.2     1  ZINC000740930783    0.5600
      7 O7         -2.3813    4.3102   51.9041 O.2     1  ZINC000740930783   -0.5300
      8 N8         -3.2873    2.3924   51.2448 N.am    1  ZINC000740930783   -0.7200
      9 C9         -4.6066    2.7956   51.7381 C.3     1  ZINC000740930783    0.0900
     10 C10        -5.6931    2.1136   50.9043 C.3     1  ZINC000740930783    0.1400
     11 H11        -5.2372    1.3674   50.2537 H       1  ZINC000740930783    0.1200
     12 O12        -6.3671    3.0910   50.1090 O.3     1  ZINC000740930783   -0.5500
     13 C13        -6.6831    1.4428   51.8214 C.ar    1  ZINC000740930783   -0.1100
     14 C14        -6.8811    0.0773   51.7445 C.ar    1  ZINC000740930783   -0.1000
     15 C15        -7.7893   -0.5383   52.5858 C.ar    1  ZINC000740930783   -0.1100
     16 C16        -8.5002    0.2117   53.5038 C.ar    1  ZINC000740930783   -0.1000
     17 C17        -8.3031    1.5777   53.5816 C.ar    1  ZINC000740930783   -0.1100
     18 C18        -7.3900    2.1932   52.7444 C.ar    1  ZINC000740930783   -0.0300
     19 Cl19       -7.1417    3.9086   52.8415 Cl      1  ZINC000740930783   -0.0600
     20 C20        -0.7770    2.2405   49.6158 C.ar    1  ZINC000740930783   -0.1000
     21 C21         0.4662    1.8612   49.1543 C.ar    1  ZINC000740930783   -0.0200
     22 Cl22        0.6247    1.1447   47.5810 Cl      1  ZINC000740930783   -0.0300
     23 C23         1.5922    2.0565   49.9436 C.ar    1  ZINC000740930783    0.0900
     24 O24         2.8145    1.6815   49.4851 O.3     1  ZINC000740930783   -0.2900
     25 C25         3.1506    0.2968   49.5917 C.3     1  ZINC000740930783    0.0400
     26 C26         4.6082    0.1597   49.9493 C.2     1  ZINC000740930783    0.5200
     27 N27         4.9740   -0.0023   51.2363 N.am    1  ZINC000740930783   -0.8500
     28 O28         5.4520    0.1951   49.0789 O.2     1  ZINC000740930783   -0.5100
     29 H29         3.4780    4.3534   50.9447 H       1  ZINC000740930783    0.0600
     30 H30         2.4428    4.8490   52.3052 H       1  ZINC000740930783    0.0600
     31 H31         4.0376    4.1234   52.6188 H       1  ZINC000740930783    0.1100
     32 H32         0.1310    3.4543   52.6565 H       1  ZINC000740930783    0.1600
     33 H33        -3.1710    1.5267   50.8230 H       1  ZINC000740930783    0.4100
     34 H34        -4.7101    2.4995   52.7820 H       1  ZINC000740930783    0.0900
     35 H35        -4.7103    3.8775   51.6552 H       1  ZINC000740930783    0.0800
     36 H36        -7.0478    2.7242   49.5283 H       1  ZINC000740930783    0.3800
     37 H37        -6.3265   -0.5091   51.0270 H       1  ZINC000740930783    0.1300
     38 H38        -7.9438   -1.6056   52.5254 H       1  ZINC000740930783    0.1300
     39 H39        -9.2101   -0.2696   54.1602 H       1  ZINC000740930783    0.1400
     40 H40        -8.8585    2.1635   54.2990 H       1  ZINC000740930783    0.1400
     41 H41        -1.6508    2.0911   48.9989 H       1  ZINC000740930783    0.1500
     42 H42         2.5411   -0.1665   50.3676 H       1  ZINC000740930783    0.0900
     43 H43         2.9623   -0.1972   48.6385 H       1  ZINC000740930783    0.0900
     44 H44         5.9120   -0.0917   51.4664 H       1  ZINC000740930783    0.4000
     45 H45         4.2991   -0.0294   51.9326 H       1  ZINC000740930783    0.4100
@<TRIPOS>BOND
     1     1     2    1
     2     1    29    1
     3     1    30    1
     4     1    31    1
     5     2     3    1
     6     3    23   ar
     7     3     4   ar
     8     4     5   ar
     9     4    32    1
    10     5     6    1
    11     5    20   ar
    12     6     7    2
    13     6     8   am
    14     8     9    1
    15     8    33    1
    16     9    10    1
    17     9    34    1
    18     9    35    1
    19    10    11    1
    20    10    12    1
    21    10    13    1
    22    12    36    1
    23    13    18   ar
    24    13    14   ar
    25    14    15   ar
    26    14    37    1
    27    15    16   ar
    28    15    38    1
    29    16    17   ar
    30    16    39    1
    31    17    18   ar
    32    17    40    1
    33    18    19    1
    34    20    21   ar
    35    20    41    1
    36    21    22    1
    37    21    23   ar
    38    23    24    1
    39    24    25    1
    40    25    26    1
    41    25    42    1
    42    25    43    1
    43    26    27   am
    44    26    28    2
    45    27    44    1
    46    27    45    1
@<TRIPOS>SUBSTRUCTURE
     1 ZINC000740930783        1 TEMP              0 ****  ****    0 ROOT


##########                                Name:    ZINC001127302705
##########                DOCK_Rotatable_Bonds:                   9
##########                         Heavy_Atoms:                  28
##########                    Molecular_Weight:             398.892
##########                DOCK_Rotatable_Bonds:                   9
##########                       Formal_Charge:          -0.0200002
##########                     HBond_Acceptors:                   7
##########                        HBond_Donors:                   1
##########                         Heavy_Atoms:                  28
##########                          Grid_Score:          -31.964397
##########                     Grid_vdw_energy:          -31.710222
##########                      Grid_es_energy:           -0.254175
##########           Internal_energy_repulsive:           23.228682

@<TRIPOS>MOLECULE
ZINC001127302705
 51 53 1 0 0
SMALL
USER_CHARGES


@<TRIPOS>ATOM
      1 C1         -2.0139    2.8710   57.5439 C.3     1  ZINC001127302705   -0.1500
      2 C2         -2.0443    3.3246   56.0830 C.3     1  ZINC001127302705   -0.1400
      3 C3         -3.4443    3.8354   55.7366 C.3     1  ZINC001127302705    0.1800
      4 C4         -3.5890    5.2844   56.2058 C.3     1  ZINC001127302705   -0.1600
      5 C5         -3.6522    3.7664   54.2223 C.3     1  ZINC001127302705    0.0700
      6 O6         -2.3875    3.8573   53.5634 O.3     1  ZINC001127302705   -0.2800
      7 C7         -2.3002    3.3188   52.3208 C.ar    1  ZINC001127302705    0.3400
      8 N8         -3.3915    2.8727   51.7222 N.ar    1  ZINC001127302705   -0.5300
      9 C9         -3.3514    2.3423   50.5144 C.ar    1  ZINC001127302705    0.1400
     10 C10        -2.1587    2.2335   49.8280 C.ar    1  ZINC001127302705   -0.2000
     11 C11        -0.9895    2.6901   50.4211 C.ar    1  ZINC001127302705   -0.0300
     12 C12        -1.0650    3.2467   51.6868 C.ar    1  ZINC001127302705   -0.1100
     13 Cl13        0.3650    3.8341   52.4765 Cl      1  ZINC001127302705   -0.0400
     14 N14        -4.4473    3.0029   56.4056 N.am    1  ZINC001127302705   -0.7100
     15 C15        -5.7581    3.2008   56.1623 C.2     1  ZINC001127302705    0.6200
     16 O16        -6.1081    4.0692   55.3867 O.2     1  ZINC001127302705   -0.5200
     17 C17        -6.7693    2.3628   56.8381 C.2     1  ZINC001127302705   -0.0200
     18 N18        -6.5526    1.5108   57.8202 N.2     1  ZINC001127302705   -0.2500
     19 N19        -7.6550    0.9514   58.1699 N.pl3   1  ZINC001127302705   -0.2800
     20 C20        -7.7868   -0.0492   59.2318 C.3     1  ZINC001127302705    0.1600
     21 C21        -8.9975    0.2663   60.0718 C.ar    1  ZINC001127302705   -0.1200
     22 C22        -9.9089   -0.7286   60.3721 C.ar    1  ZINC001127302705   -0.1000
     23 C23       -11.0195   -0.4391   61.1425 C.ar    1  ZINC001127302705   -0.1200
     24 C24       -11.2185    0.8453   61.6131 C.ar    1  ZINC001127302705   -0.1100
     25 C25       -10.3065    1.8402   61.3137 C.ar    1  ZINC001127302705   -0.1200
     26 C26        -9.1937    1.5496   60.5467 C.ar    1  ZINC001127302705   -0.0800
     27 C27        -8.6748    1.4185   57.4181 C.2     1  ZINC001127302705   -0.0200
     28 C28        -8.1561    2.3265   56.5585 C.2     1  ZINC001127302705   -0.1800
     29 H29        -2.7394    2.0709   57.6911 H       1  ZINC001127302705    0.0500
     30 H30        -1.0165    2.5072   57.7907 H       1  ZINC001127302705    0.0600
     31 H31        -2.2642    3.7119   58.1907 H       1  ZINC001127302705    0.0500
     32 H32        -1.3189    4.1248   55.9358 H       1  ZINC001127302705    0.0900
     33 H33        -1.7940    2.4837   55.4362 H       1  ZINC001127302705    0.0800
     34 H34        -2.8429    5.9038   55.7081 H       1  ZINC001127302705    0.0700
     35 H35        -4.5865    5.6483   55.9591 H       1  ZINC001127302705    0.0500
     36 H36        -3.4410    5.3335   57.2846 H       1  ZINC001127302705    0.0800
     37 H37        -4.1296    2.8212   53.9638 H       1  ZINC001127302705    0.0800
     38 H38        -4.2876    4.5932   53.9049 H       1  ZINC001127302705    0.0700
     39 H39        -4.2637    1.9886   50.0571 H       1  ZINC001127302705    0.1700
     40 H40        -2.1354    1.7975   48.8402 H       1  ZINC001127302705    0.1500
     41 H41        -0.0434    2.6167   49.9056 H       1  ZINC001127302705    0.1500
     42 H42        -4.1680    2.3094   57.0234 H       1  ZINC001127302705    0.4100
     43 H43        -7.9004   -1.0379   58.7874 H       1  ZINC001127302705    0.1000
     44 H44        -6.8953   -0.0330   59.8589 H       1  ZINC001127302705    0.1100
     45 H45        -9.7535   -1.7322   60.0044 H       1  ZINC001127302705    0.1200
     46 H46       -11.7319   -1.2164   61.3765 H       1  ZINC001127302705    0.1300
     47 H47       -12.0865    1.0717   62.2145 H       1  ZINC001127302705    0.1200
     48 H48       -10.4622    2.8437   61.6810 H       1  ZINC001127302705    0.1300
     49 H49        -8.4813    2.3268   60.3127 H       1  ZINC001127302705    0.1300
     50 H50        -9.7117    1.1259   57.4920 H       1  ZINC001127302705    0.1800
     51 H51        -8.6874    2.8975   55.8115 H       1  ZINC001127302705    0.1600
@<TRIPOS>BOND
     1     1     2    1
     2     1    29    1
     3     1    30    1
     4     1    31    1
     5     2     3    1
     6     2    32    1
     7     2    33    1
     8     3     4    1
     9     3     5    1
    10     3    14    1
    11     4    34    1
    12     4    35    1
    13     4    36    1
    14     5     6    1
    15     5    37    1
    16     5    38    1
    17     6     7    1
    18     7    12   ar
    19     7     8   ar
    20     8     9   ar
    21     9    10   ar
    22     9    39    1
    23    10    11   ar
    24    10    40    1
    25    11    12   ar
    26    11    41    1
    27    12    13    1
    28    14    15   am
    29    14    42    1
    30    15    16    2
    31    15    17    1
    32    17    28    1
    33    17    18    2
    34    18    19    1
    35    19    20    1
    36    19    27    1
    37    20    21    1
    38    20    43    1
    39    20    44    1
    40    21    26   ar
    41    21    22   ar
    42    22    23   ar
    43    22    45    1
    44    23    24   ar
    45    23    46    1
    46    24    25   ar
    47    24    47    1
    48    25    26   ar
    49    25    48    1
    50    26    49    1
    51    27    28    2
    52    27    50    1
    53    28    51    1
@<TRIPOS>SUBSTRUCTURE
     1 ZINC001127302705        1 TEMP              0 ****  ****    0 ROOT


##########                                Name:    ZINC001191196975
##########                DOCK_Rotatable_Bonds:                  14
##########                         Heavy_Atoms:                  24
##########                    Molecular_Weight:             339.438
##########                DOCK_Rotatable_Bonds:                  14
##########                       Formal_Charge:          0.00999969
##########                     HBond_Acceptors:                   8
##########                        HBond_Donors:                   4
##########                         Heavy_Atoms:                  24
##########                          Grid_Score:          -31.930147
##########                     Grid_vdw_energy:          -30.850719
##########                      Grid_es_energy:           -1.079427
##########           Internal_energy_repulsive:           12.435999

@<TRIPOS>MOLECULE
ZINC001191196975
 53 53 1 0 0
SMALL
USER_CHARGES


@<TRIPOS>ATOM
      1 C1         -0.7310    2.5936   58.7632 C.2     1  ZINC001191196975   -0.1600
      2 C2         -1.7179    2.6227   57.9023 C.2     1  ZINC001191196975   -0.1800
      3 C3         -1.5022    2.1370   56.4920 C.3     1  ZINC001191196975    0.1500
      4 N4         -2.3941    2.8624   55.5839 N.am    1  ZINC001191196975   -0.7300
      5 C5         -2.0239    4.0605   55.0903 C.2     1  ZINC001191196975    0.5100
      6 O6         -0.9518    4.5376   55.3967 O.2     1  ZINC001191196975   -0.5200
      7 C7         -2.9422    4.8075   54.1575 C.3     1  ZINC001191196975    0.0300
      8 N8         -3.8426    3.8568   53.4916 N.3     1  ZINC001191196975   -0.5100
      9 C9         -5.2393    4.3029   53.5819 C.3     1  ZINC001191196975    0.0200
     10 C10        -3.4461    3.6478   52.0925 C.3     1  ZINC001191196975    0.0700
     11 H11        -3.5102    4.5777   51.5275 H       1  ZINC001191196975    0.0600
     12 C12        -4.3025    2.5353   51.4321 C.3     1  ZINC001191196975   -0.1200
     13 C13        -3.3723    1.9939   50.3261 C.3     1  ZINC001191196975    0.1000
     14 N14        -1.9946    2.3374   50.7076 N.am    1  ZINC001191196975   -0.6200
     15 C15        -0.8881    2.0572   49.9910 C.2     1  ZINC001191196975    0.5300
     16 O16        -0.9830    1.4735   48.9321 O.2     1  ZINC001191196975   -0.5400
     17 C17         0.4671    2.4692   50.5054 C.3     1  ZINC001191196975   -0.1300
     18 C18         1.5341    1.5283   49.9421 C.3     1  ZINC001191196975   -0.1000
     19 C19         2.8765    1.8175   50.6168 C.3     1  ZINC001191196975   -0.1300
     20 C20         3.8786    0.7211   50.2495 C.3     1  ZINC001191196975    0.1400
     21 N21         4.0428    0.6771   48.7944 N.am    1  ZINC001191196975   -0.7500
     22 C22         5.2137    0.2773   48.2602 C.2     1  ZINC001191196975    0.7000
     23 N23         5.3642    0.2352   46.9215 N.am    1  ZINC001191196975   -0.8700
     24 O24         6.1343   -0.0455   48.9859 O.2     1  ZINC001191196975   -0.5900
     25 C25        -2.0236    3.0409   52.0034 C.3     1  ZINC001191196975    0.1100
     26 H26         0.2373    2.2216   58.4622 H       1  ZINC001191196975    0.1000
     27 H27        -0.8844    2.9458   59.7725 H       1  ZINC001191196975    0.1000
     28 H28        -2.6862    2.9946   58.2031 H       1  ZINC001191196975    0.1200
     29 H29        -0.4665    2.3131   56.2016 H       1  ZINC001191196975    0.0800
     30 H30        -1.7183    1.0701   56.4382 H       1  ZINC001191196975    0.0700
     31 H31        -3.2510    2.4802   55.3379 H       1  ZINC001191196975    0.4000
     32 H32        -3.5304    5.5276   54.7262 H       1  ZINC001191196975    0.0700
     33 H33        -2.3501    5.3329   53.4083 H       1  ZINC001191196975    0.1100
     34 H34        -5.3209    5.3210   53.2013 H       1  ZINC001191196975    0.0200
     35 H35        -5.8710    3.6416   52.9888 H       1  ZINC001191196975    0.0700
     36 H36        -5.5624    4.2770   54.6226 H       1  ZINC001191196975    0.0900
     37 H37        -4.5409    1.7531   52.1527 H       1  ZINC001191196975    0.0900
     38 H38        -5.2119    2.9537   51.0005 H       1  ZINC001191196975    0.0800
     39 H39        -3.4772    0.9115   50.2506 H       1  ZINC001191196975    0.0700
     40 H40        -3.6200    2.4598   49.3723 H       1  ZINC001191196975    0.0700
     41 H41         0.6802    3.4906   50.1900 H       1  ZINC001191196975    0.0900
     42 H42         0.4740    2.4162   51.5940 H       1  ZINC001191196975    0.0900
     43 H43         1.2457    0.4950   50.1349 H       1  ZINC001191196975    0.0800
     44 H44         1.6263    1.6854   48.8674 H       1  ZINC001191196975    0.0800
     45 H45         3.2532    2.7825   50.2776 H       1  ZINC001191196975    0.0700
     46 H46         2.7424    1.8396   51.6982 H       1  ZINC001191196975    0.0700
     47 H47         4.8394    0.9356   50.7173 H       1  ZINC001191196975    0.0700
     48 H48         3.5093   -0.2417   50.6028 H       1  ZINC001191196975    0.0700
     49 H49         3.3087    0.9357   48.2155 H       1  ZINC001191196975    0.4000
     50 H50         6.2066   -0.0537   46.5370 H       1  ZINC001191196975    0.4000
     51 H51         4.6301    0.4939   46.3426 H       1  ZINC001191196975    0.4200
     52 H52        -1.2716    3.8296   52.0238 H       1  ZINC001191196975    0.0800
     53 H53        -1.8599    2.3381   52.8203 H       1  ZINC001191196975    0.0800
@<TRIPOS>BOND
     1     1     2    2
     2     1    26    1
     3     1    27    1
     4     2     3    1
     5     2    28    1
     6     3     4    1
     7     3    29    1
     8     3    30    1
     9     4     5   am
    10     4    31    1
    11     5     6    2
    12     5     7    1
    13     7     8    1
    14     7    32    1
    15     7    33    1
    16     8     9    1
    17     8    10    1
    18     9    34    1
    19     9    35    1
    20     9    36    1
    21    10    11    1
    22    10    25    1
    23    10    12    1
    24    12    13    1
    25    12    37    1
    26    12    38    1
    27    13    14    1
    28    13    39    1
    29    13    40    1
    30    14    15   am
    31    14    25    1
    32    15    16    2
    33    15    17    1
    34    17    18    1
    35    17    41    1
    36    17    42    1
    37    18    19    1
    38    18    43    1
    39    18    44    1
    40    19    20    1
    41    19    45    1
    42    19    46    1
    43    20    21    1
    44    20    47    1
    45    20    48    1
    46    21    22   am
    47    21    49    1
    48    22    23   am
    49    22    24    2
    50    23    50    1
    51    23    51    1
    52    25    52    1
    53    25    53    1
@<TRIPOS>SUBSTRUCTURE
     1 ZINC001191196975        1 TEMP              0 ****  ****    0 ROOT


##########                                Name:    ZINC001109082135
##########                DOCK_Rotatable_Bonds:                   9
##########                         Heavy_Atoms:                  27
##########                    Molecular_Weight:             373.455
##########                DOCK_Rotatable_Bonds:                   9
##########                       Formal_Charge:          -0.0100003
##########                     HBond_Acceptors:                   8
##########                        HBond_Donors:                   3
##########                         Heavy_Atoms:                  27
##########                          Grid_Score:          -31.923481
##########                     Grid_vdw_energy:          -32.637867
##########                      Grid_es_energy:            0.714386
##########           Internal_energy_repulsive:           15.853573

@<TRIPOS>MOLECULE
ZINC001109082135
 54 57 1 0 0
SMALL
USER_CHARGES


@<TRIPOS>ATOM
      1 C1        -11.3927   -3.4951   57.8203 C.3     1  ZINC001109082135   -0.1400
      2 C2        -10.1759   -3.1132   56.9751 C.3     1  ZINC001109082135   -0.1400
      3 C3        -10.3980   -1.7557   56.3594 C.2     1  ZINC001109082135    0.5100
      4 O4        -10.0275   -0.7581   56.9411 O.2     1  ZINC001109082135   -0.5400
      5 N5        -11.0082   -1.6503   55.1624 N.am    1  ZINC001109082135   -0.7200
      6 C6        -11.2257   -0.3306   54.5647 C.3     1  ZINC001109082135    0.1000
      7 C7        -10.0160    0.0598   53.7553 C.2     1  ZINC001109082135    0.5100
      8 O8         -9.3501   -0.7943   53.2093 O.2     1  ZINC001109082135   -0.5300
      9 N9         -9.6739    1.3582   53.6383 N.am    1  ZINC001109082135   -0.7100
     10 C10        -8.4988    1.7379   52.8500 C.3     1  ZINC001109082135    0.1100
     11 H11        -8.2966    0.9920   52.0813 H       1  ZINC001109082135    0.0900
     12 C12        -8.6973    3.1358   52.2145 C.3     1  ZINC001109082135   -0.1600
     13 C13        -7.5496    3.9859   52.8384 C.3     1  ZINC001109082135    0.0600
     14 H14        -7.2731    4.8826   52.2836 H       1  ZINC001109082135    0.1300
     15 C15        -7.9761    4.2156   54.3196 C.3     1  ZINC001109082135   -0.1200
     16 C16        -7.7895    2.8229   54.9701 C.3     1  ZINC001109082135   -0.1100
     17 C17        -7.2568    1.9259   53.7724 C.3     1  ZINC001109082135    0.0400
     18 H18        -6.7254    1.0197   54.0633 H       1  ZINC001109082135    0.1200
     19 N19        -6.4696    2.9462   52.9881 N.3     1  ZINC001109082135   -0.4800
     20 C20        -6.0566    2.4052   51.6863 C.3     1  ZINC001109082135    0.0800
     21 C21        -4.5594    2.5111   51.5505 C.2     1  ZINC001109082135    0.2000
     22 C22        -3.9431    2.0577   50.4238 C.2     1  ZINC001109082135   -0.2900
     23 C23        -2.5408    2.1724   50.3288 C.2     1  ZINC001109082135    0.5200
     24 O24        -1.9493    1.7793   49.3371 O.2     1  ZINC001109082135   -0.5400
     25 N25        -1.8669    2.7272   51.3589 N.am    1  ZINC001109082135   -0.6300
     26 C26        -2.5364    3.1566   52.4466 C.2     1  ZINC001109082135    0.4300
     27 C27        -1.7692    3.7735   53.5876 C.3     1  ZINC001109082135   -0.1400
     28 C28        -0.6370    4.7408   53.2363 C.3     1  ZINC001109082135   -0.1400
     29 C29        -1.9438    5.2746   53.8263 C.3     1  ZINC001109082135   -0.1400
     30 N30        -3.8360    3.0548   52.5323 N.2     1  ZINC001109082135   -0.5300
     31 H31       -12.2799   -3.5238   57.1879 H       1  ZINC001109082135    0.0600
     32 H32       -11.2320   -4.4769   58.2657 H       1  ZINC001109082135    0.0600
     33 H33       -11.5330   -2.7567   58.6097 H       1  ZINC001109082135    0.0600
     34 H34        -9.2886   -3.0845   57.6077 H       1  ZINC001109082135    0.1000
     35 H35       -10.0356   -3.8516   56.1857 H       1  ZINC001109082135    0.1000
     36 H36       -11.3034   -2.4484   54.6966 H       1  ZINC001109082135    0.4100
     37 H37       -12.1011   -0.3654   53.9160 H       1  ZINC001109082135    0.1000
     38 H38       -11.3873    0.4036   55.3539 H       1  ZINC001109082135    0.1000
     39 H39       -10.2057    2.0412   54.0759 H       1  ZINC001109082135    0.4000
     40 H40        -8.5906    3.0834   51.1310 H       1  ZINC001109082135    0.0800
     41 H41        -9.6699    3.5462   52.4860 H       1  ZINC001109082135    0.0800
     42 H42        -7.3279    4.9513   54.7958 H       1  ZINC001109082135    0.0700
     43 H43        -9.0188    4.5283   54.3747 H       1  ZINC001109082135    0.0700
     44 H44        -7.0491    2.8684   55.7687 H       1  ZINC001109082135    0.0700
     45 H45        -8.7399    2.4453   55.3476 H       1  ZINC001109082135    0.0700
     46 H46        -6.3546    1.3590   51.6166 H       1  ZINC001109082135    0.1000
     47 H47        -6.5349    2.9732   50.8885 H       1  ZINC001109082135    0.0700
     48 H48        -4.5161    1.6191   49.6202 H       1  ZINC001109082135    0.1600
     49 H49        -0.9018    2.8163   51.3161 H       1  ZINC001109082135    0.4200
     50 H50        -1.6347    3.1371   54.4622 H       1  ZINC001109082135    0.1300
     51 H51         0.2428    4.7408   53.8799 H       1  ZINC001109082135    0.1100
     52 H52        -0.4470    4.9308   52.1800 H       1  ZINC001109082135    0.1100
     53 H53        -2.6136    5.8161   53.1582 H       1  ZINC001109082135    0.1100
     54 H54        -1.9237    5.6259   54.8580 H       1  ZINC001109082135    0.1100
@<TRIPOS>BOND
     1     1     2    1
     2     1    31    1
     3     1    32    1
     4     1    33    1
     5     2     3    1
     6     2    34    1
     7     2    35    1
     8     3     4    2
     9     3     5   am
    10     5     6    1
    11     5    36    1
    12     6     7    1
    13     6    37    1
    14     6    38    1
    15     7     8    2
    16     7     9   am
    17     9    10    1
    18     9    39    1
    19    10    11    1
    20    10    17    1
    21    10    12    1
    22    12    13    1
    23    12    40    1
    24    12    41    1
    25    13    14    1
    26    13    19    1
    27    13    15    1
    28    15    16    1
    29    15    42    1
    30    15    43    1
    31    16    17    1
    32    16    44    1
    33    16    45    1
    34    17    18    1
    35    17    19    1
    36    19    20    1
    37    20    21    1
    38    20    46    1
    39    20    47    1
    40    21    30    1
    41    21    22    2
    42    22    23    1
    43    22    48    1
    44    23    24    2
    45    23    25   am
    46    25    26    1
    47    25    49    1
    48    26    27    1
    49    26    30    2
    50    27    29    1
    51    27    28    1
    52    27    50    1
    53    28    29    1
    54    28    51    1
    55    28    52    1
    56    29    53    1
    57    29    54    1
@<TRIPOS>SUBSTRUCTURE
     1 ZINC001109082135        1 TEMP              0 ****  ****    0 ROOT


##########                                Name:    ZINC000479580180
##########                DOCK_Rotatable_Bonds:                   5
##########                         Heavy_Atoms:                  30
##########                    Molecular_Weight:             404.444
##########                DOCK_Rotatable_Bonds:                   5
##########                       Formal_Charge:           0.0299995
##########                     HBond_Acceptors:                   7
##########                        HBond_Donors:                   1
##########                         Heavy_Atoms:                  30
##########                          Grid_Score:          -31.917118
##########                     Grid_vdw_energy:          -31.831865
##########                      Grid_es_energy:           -0.085252
##########           Internal_energy_repulsive:           16.765858

@<TRIPOS>MOLECULE
ZINC000479580180
 51 55 1 0 0
SMALL
USER_CHARGES


@<TRIPOS>ATOM
      1 O1         -6.7680   -0.0783   52.2647 O.2     1  ZINC000479580180   -0.5200
      2 C2         -7.4120    0.9313   52.4572 C.2     1  ZINC000479580180    0.5200
      3 C3         -6.7289    2.2746   52.4445 C.3     1  ZINC000479580180   -0.0700
      4 C4         -5.4506    2.1807   51.6519 C.2     1  ZINC000479580180   -0.1600
      5 C5         -5.2981    1.6498   50.4314 C.2     1  ZINC000479580180    0.0300
      6 O6         -4.0141    1.7434   50.0424 O.3     1  ZINC000479580180   -0.1900
      7 C7         -3.2665    2.3406   50.9919 C.ar    1  ZINC000479580180    0.0800
      8 C8         -1.9199    2.6686   51.0821 C.ar    1  ZINC000479580180   -0.1400
      9 C9         -1.4403    3.2939   52.2161 C.ar    1  ZINC000479580180    0.1300
     10 F10        -0.1301    3.6123   52.3012 F       1  ZINC000479580180   -0.1300
     11 C11        -2.2921    3.5990   53.2700 C.ar    1  ZINC000479580180   -0.1600
     12 C12        -3.6209    3.2833   53.1992 C.ar    1  ZINC000479580180   -0.0400
     13 C13        -4.1234    2.6582   52.0595 C.ar    1  ZINC000479580180   -0.1200
     14 N14        -8.7394    0.8524   52.6768 N.am    1  ZINC000479580180   -0.6200
     15 C15        -9.4186   -0.4503   52.6980 C.3     1  ZINC000479580180    0.1100
     16 C16       -10.2011   -0.5770   54.0088 C.3     1  ZINC000479580180   -0.1300
     17 C17       -11.1390    0.6233   54.1566 C.3     1  ZINC000479580180   -0.0100
     18 C18       -11.9352    0.4847   55.4285 C.2     1  ZINC000479580180    0.3000
     19 N19       -12.3930   -0.6332   55.9270 N.2     1  ZINC000479580180   -0.5300
     20 C20       -13.0546   -0.3847   57.0652 C.2     1  ZINC000479580180    0.2700
     21 C21       -13.7162   -1.4011   57.9207 C.ar    1  ZINC000479580180   -0.0200
     22 C22       -13.8052   -2.7241   57.4929 C.ar    1  ZINC000479580180   -0.0800
     23 C23       -14.4211   -3.6653   58.2928 C.ar    1  ZINC000479580180   -0.1300
     24 C24       -14.9498   -3.2972   59.5167 C.ar    1  ZINC000479580180   -0.1000
     25 C25       -14.8641   -1.9851   59.9462 C.ar    1  ZINC000479580180   -0.1200
     26 C26       -14.2453   -1.0369   59.1571 C.ar    1  ZINC000479580180   -0.0800
     27 N27       -13.0202    0.9088   57.2989 N.2     1  ZINC000479580180   -0.3000
     28 N28       -12.2917    1.4898   56.2483 N.pl3   1  ZINC000479580180   -0.4800
     29 C29       -10.3160    1.9125   54.2081 C.3     1  ZINC000479580180   -0.1400
     30 C30        -9.5338    2.0671   52.9055 C.3     1  ZINC000479580180    0.1200
     31 H31        -7.3872    3.0127   51.9861 H       1  ZINC000479580180    0.1100
     32 H32        -6.5012    2.5761   53.4669 H       1  ZINC000479580180    0.1100
     33 H33        -6.0913    1.2104   49.8447 H       1  ZINC000479580180    0.2100
     34 H34        -1.2499    2.4350   50.2679 H       1  ZINC000479580180    0.1500
     35 H35        -1.9028    4.0882   54.1506 H       1  ZINC000479580180    0.1400
     36 H36        -4.2793    3.5219   54.0214 H       1  ZINC000479580180    0.1300
     37 H37       -10.1054   -0.5180   51.8543 H       1  ZINC000479580180    0.0800
     38 H38        -8.6794   -1.2488   52.6349 H       1  ZINC000479580180    0.0900
     39 H39       -10.7863   -1.4965   53.9957 H       1  ZINC000479580180    0.0900
     40 H40        -9.5050   -0.6002   54.8473 H       1  ZINC000479580180    0.0700
     41 H41       -11.8184    0.6602   53.3050 H       1  ZINC000479580180    0.1200
     42 H42       -13.3934   -3.0125   56.5371 H       1  ZINC000479580180    0.1400
     43 H43       -14.4907   -4.6911   57.9622 H       1  ZINC000479580180    0.1300
     44 H44       -15.4315   -4.0367   60.1392 H       1  ZINC000479580180    0.1300
     45 H45       -15.2790   -1.7029   60.9026 H       1  ZINC000479580180    0.1300
     46 H46       -14.1788   -0.0127   59.4935 H       1  ZINC000479580180    0.1300
     47 H47       -12.0902    2.4317   56.1333 H       1  ZINC000479580180    0.4400
     48 H48       -10.9830    2.7649   54.3368 H       1  ZINC000479580180    0.0900
     49 H49        -9.6189    1.8659   55.0447 H       1  ZINC000479580180    0.0700
     50 H50        -8.8717    2.9301   52.9771 H       1  ZINC000479580180    0.1000
     51 H51       -10.2280    2.2042   52.0764 H       1  ZINC000479580180    0.0800
@<TRIPOS>BOND
     1     1     2    2
     2     2     3    1
     3     2    14   am
     4     3     4    1
     5     3    31    1
     6     3    32    1
     7     4    13    1
     8     4     5    2
     9     5     6    1
    10     5    33    1
    11     6     7    1
    12     7    13   ar
    13     7     8   ar
    14     8     9   ar
    15     8    34    1
    16     9    10    1
    17     9    11   ar
    18    11    12   ar
    19    11    35    1
    20    12    13   ar
    21    12    36    1
    22    14    30    1
    23    14    15    1
    24    15    16    1
    25    15    37    1
    26    15    38    1
    27    16    17    1
    28    16    39    1
    29    16    40    1
    30    17    18    1
    31    17    29    1
    32    17    41    1
    33    18    28    1
    34    18    19    2
    35    19    20    1
    36    20    21    1
    37    20    27    2
    38    21    26   ar
    39    21    22   ar
    40    22    23   ar
    41    22    42    1
    42    23    24   ar
    43    23    43    1
    44    24    25   ar
    45    24    44    1
    46    25    26   ar
    47    25    45    1
    48    26    46    1
    49    27    28    1
    50    28    47    1
    51    29    30    1
    52    29    48    1
    53    29    49    1
    54    30    50    1
    55    30    51    1
@<TRIPOS>SUBSTRUCTURE
     1 ZINC000479580180        1 TEMP              0 ****  ****    0 ROOT


##########                                Name:    ZINC000465642058
##########                DOCK_Rotatable_Bonds:                  10
##########                         Heavy_Atoms:                  31
##########                    Molecular_Weight:             420.511
##########                DOCK_Rotatable_Bonds:                  10
##########                       Formal_Charge:          1.2666e-07
##########                     HBond_Acceptors:                   7
##########                        HBond_Donors:                   2
##########                         Heavy_Atoms:                  31
##########                          Grid_Score:          -31.909472
##########                     Grid_vdw_energy:          -32.069706
##########                      Grid_es_energy:            0.160235
##########           Internal_energy_repulsive:           14.253666

@<TRIPOS>MOLECULE
ZINC000465642058
 59 62 1 0 0
SMALL
USER_CHARGES


@<TRIPOS>ATOM
      1 C1         -8.5288    2.6453   57.2179 C.3     1  ZINC000465642058   -0.1500
      2 C2         -7.5010    2.1444   56.2011 C.3     1  ZINC000465642058    0.0500
      3 O3         -7.8750    2.5791   54.8922 O.3     1  ZINC000465642058   -0.3000
      4 C4         -7.0242    2.2777   53.8751 C.ar    1  ZINC000465642058    0.1200
      5 C5         -5.8589    3.0107   53.7002 C.ar    1  ZINC000465642058   -0.1600
      6 C6         -4.9999    2.7005   52.6691 C.ar    1  ZINC000465642058   -0.1300
      7 C7         -5.2800    1.6547   51.7996 C.ar    1  ZINC000465642058    0.0700
      8 C8         -6.4533    0.9257   51.9772 C.ar    1  ZINC000465642058   -0.0700
      9 C9         -7.3137    1.2324   53.0104 C.ar    1  ZINC000465642058   -0.1100
     10 C10        -8.5801    0.4363   53.1934 C.3     1  ZINC000465642058    0.1900
     11 N11        -9.7390    1.3044   52.9717 N.am    1  ZINC000465642058   -0.7300
     12 C12       -10.9150    0.7727   52.5836 C.2     1  ZINC000465642058    0.7100
     13 O13       -11.0136   -0.4276   52.4162 O.2     1  ZINC000465642058   -0.5900
     14 N14       -11.9817    1.5712   52.3813 N.am    1  ZINC000465642058   -0.6200
     15 C15       -13.2595    0.9932   51.9577 C.3     1  ZINC000465642058    0.1900
     16 C16       -13.2173    0.7114   50.4778 C.2     1  ZINC000465642058    0.0500
     17 N17       -12.5353   -0.2425   49.8976 N.2     1  ZINC000465642058   -0.2700
     18 N18       -12.7638   -0.1668   48.5176 N.pl3   1  ZINC000465642058   -0.4700
     19 C19       -13.6050    0.8639   48.2918 C.2     1  ZINC000465642058    0.0600
     20 C20       -13.9055    1.4207   49.4880 C.2     1  ZINC000465642058   -0.2600
     21 C21       -11.8634    3.0172   52.5847 C.3     1  ZINC000465642058    0.1700
     22 C22       -11.5954    3.6901   51.2632 C.ar    1  ZINC000465642058   -0.1100
     23 C23       -12.6426    4.2187   50.5319 C.ar    1  ZINC000465642058   -0.0900
     24 C24       -12.3968    4.8359   49.3196 C.ar    1  ZINC000465642058   -0.1200
     25 C25       -11.1038    4.9249   48.8389 C.ar    1  ZINC000465642058   -0.1200
     26 C26       -10.0565    4.3971   49.5707 C.ar    1  ZINC000465642058   -0.1300
     27 C27       -10.3018    3.7837   50.7850 C.ar    1  ZINC000465642058   -0.1100
     28 O28        -4.2928    1.5069   50.8723 O.3     1  ZINC000465642058   -0.3000
     29 C29        -3.5249    2.7203   50.8014 C.3     1  ZINC000465642058    0.0800
     30 H30        -3.9392    3.3964   50.0536 H       1  ZINC000465642058    0.0900
     31 C31        -2.0563    2.4154   50.4992 C.3     1  ZINC000465642058   -0.1500
     32 C32        -3.6851    3.3102   52.2225 C.3     1  ZINC000465642058   -0.1100
     33 H33        -9.5114    2.2445   56.9688 H       1  ZINC000465642058    0.0700
     34 H34        -8.2435    2.3138   58.2162 H       1  ZINC000465642058    0.0800
     35 H35        -8.5637    3.7344   57.1928 H       1  ZINC000465642058    0.0700
     36 H36        -6.5185    2.5453   56.4501 H       1  ZINC000465642058    0.0600
     37 H37        -7.4662    1.0552   56.2262 H       1  ZINC000465642058    0.0600
     38 H38        -5.6258    3.8239   54.3716 H       1  ZINC000465642058    0.1300
     39 H39        -6.6883    0.1135   51.3052 H       1  ZINC000465642058    0.1400
     40 H40        -8.5993   -0.3854   52.4775 H       1  ZINC000465642058    0.0700
     41 H41        -8.6144    0.0361   54.2067 H       1  ZINC000465642058    0.0800
     42 H42        -9.6600    2.2621   53.1042 H       1  ZINC000465642058    0.4000
     43 H43       -13.4354    0.0640   52.4996 H       1  ZINC000465642058    0.1000
     44 H44       -14.0647    1.6963   52.1709 H       1  ZINC000465642058    0.0900
     45 H45       -12.3843   -0.7519   47.8435 H       1  ZINC000465642058    0.4400
     46 H46       -13.9755    1.1843   47.3292 H       1  ZINC000465642058    0.1800
     47 H47       -14.5566    2.2672   49.6492 H       1  ZINC000465642058    0.1500
     48 H48       -12.7918    3.4019   53.0068 H       1  ZINC000465642058    0.0900
     49 H49       -11.0406    3.2216   53.2699 H       1  ZINC000465642058    0.0900
     50 H50       -13.6528    4.1491   50.9074 H       1  ZINC000465642058    0.1300
     51 H51       -13.2151    5.2482   48.7479 H       1  ZINC000465642058    0.1200
     52 H52       -10.9119    5.4065   47.8915 H       1  ZINC000465642058    0.1200
     53 H53        -9.0463    4.4664   49.1951 H       1  ZINC000465642058    0.1200
     54 H54        -9.4836    3.3714   51.3567 H       1  ZINC000465642058    0.1200
     55 H55        -1.9799    1.9188   49.5319 H       1  ZINC000465642058    0.0700
     56 H56        -1.4894    3.3461   50.4757 H       1  ZINC000465642058    0.0800
     57 H57        -1.6534    1.7640   51.2748 H       1  ZINC000465642058    0.0700
     58 H58        -3.7520    4.3976   52.1875 H       1  ZINC000465642058    0.0900
     59 H59        -2.8684    2.9924   52.8705 H       1  ZINC000465642058    0.1000
@<TRIPOS>BOND
     1     1     2    1
     2     1    33    1
     3     1    34    1
     4     1    35    1
     5     2     3    1
     6     2    36    1
     7     2    37    1
     8     3     4    1
     9     4     9   ar
    10     4     5   ar
    11     5     6   ar
    12     5    38    1
    13     6    32    1
    14     6     7   ar
    15     7     8   ar
    16     7    28    1
    17     8     9   ar
    18     8    39    1
    19     9    10    1
    20    10    11    1
    21    10    40    1
    22    10    41    1
    23    11    12   am
    24    11    42    1
    25    12    13    2
    26    12    14   am
    27    14    15    1
    28    14    21    1
    29    15    16    1
    30    15    43    1
    31    15    44    1
    32    16    20    1
    33    16    17    2
    34    17    18    1
    35    18    19    1
    36    18    45    1
    37    19    20    2
    38    19    46    1
    39    20    47    1
    40    21    22    1
    41    21    48    1
    42    21    49    1
    43    22    27   ar
    44    22    23   ar
    45    23    24   ar
    46    23    50    1
    47    24    25   ar
    48    24    51    1
    49    25    26   ar
    50    25    52    1
    51    26    27   ar
    52    26    53    1
    53    27    54    1
    54    28    29    1
    55    29    30    1
    56    29    31    1
    57    29    32    1
    58    31    55    1
    59    31    56    1
    60    31    57    1
    61    32    58    1
    62    32    59    1
@<TRIPOS>SUBSTRUCTURE
     1 ZINC000465642058        1 TEMP              0 ****  ****    0 ROOT


##########                                Name:    ZINC000435005159
##########                DOCK_Rotatable_Bonds:                  12
##########                         Heavy_Atoms:                  30
##########                    Molecular_Weight:             401.508
##########                DOCK_Rotatable_Bonds:                  12
##########                       Formal_Charge:          -0.0399985
##########                     HBond_Acceptors:                   5
##########                        HBond_Donors:                   2
##########                         Heavy_Atoms:                  30
##########                          Grid_Score:          -31.906223
##########                     Grid_vdw_energy:          -29.773207
##########                      Grid_es_energy:           -2.133016
##########           Internal_energy_repulsive:           10.257698

@<TRIPOS>MOLECULE
ZINC000435005159
 57 59 1 0 0
SMALL
USER_CHARGES


@<TRIPOS>ATOM
      1 O1         -7.0296    5.4822   50.8181 O.2     1  ZINC000435005159   -0.5300
      2 C2         -7.7543    4.5192   50.6822 C.2     1  ZINC000435005159    0.5200
      3 C3         -8.7465    4.4769   49.5488 C.3     1  ZINC000435005159   -0.1400
      4 C4         -9.8452    5.5132   49.7938 C.3     1  ZINC000435005159   -0.1200
      5 C5        -11.0510    4.8335   50.4458 C.3     1  ZINC000435005159    0.1200
      6 N6        -11.8069    4.0992   49.4281 N.am    1  ZINC000435005159   -0.7200
      7 C7        -12.4794    2.9807   49.7646 C.2     1  ZINC000435005159    0.5600
      8 O8        -12.4576    2.5804   50.9121 O.2     1  ZINC000435005159   -0.5300
      9 C9        -13.2437    2.2407   48.7379 C.ar    1  ZINC000435005159   -0.1900
     10 C10       -13.4630    2.7995   47.4734 C.ar    1  ZINC000435005159   -0.0200
     11 C11       -14.1843    2.0655   46.5480 C.ar    1  ZINC000435005159   -0.1800
     12 C12       -14.6609    0.8153   46.8986 C.ar    1  ZINC000435005159    0.1200
     13 N13       -14.4391    0.3138   48.0989 N.ar    1  ZINC000435005159   -0.4900
     14 C14       -13.7538    0.9707   49.0113 C.ar    1  ZINC000435005159    0.1400
     15 N15        -7.6683    3.4845   51.5415 N.am    1  ZINC000435005159   -0.7300
     16 C16        -6.7037    3.5257   52.6434 C.3     1  ZINC000435005159    0.1900
     17 H17        -6.6962    4.5232   53.0827 H       1  ZINC000435005159    0.1000
     18 C18        -7.1025    2.5024   53.7088 C.3     1  ZINC000435005159   -0.1200
     19 C19        -8.1110    3.1340   54.6703 C.3     1  ZINC000435005159   -0.0800
     20 C20        -8.3465    2.2046   55.8331 C.ar    1  ZINC000435005159   -0.0800
     21 C21        -9.4100    1.3218   55.8079 C.ar    1  ZINC000435005159   -0.1200
     22 C22        -9.6259    0.4692   56.8743 C.ar    1  ZINC000435005159   -0.1200
     23 C23        -8.7783    0.4992   57.9658 C.ar    1  ZINC000435005159   -0.1200
     24 C24        -7.7143    1.3814   57.9907 C.ar    1  ZINC000435005159   -0.1200
     25 C25        -7.4958    2.2310   56.9223 C.ar    1  ZINC000435005159   -0.1200
     26 C26        -5.3292    3.1967   52.1204 C.ar    1  ZINC000435005159   -0.1000
     27 C27        -4.2131    3.7657   52.7046 C.ar    1  ZINC000435005159   -0.1100
     28 C28        -2.9522    3.4639   52.2249 C.ar    1  ZINC000435005159   -0.1200
     29 C29        -2.8075    2.5927   51.1613 C.ar    1  ZINC000435005159   -0.1200
     30 C30        -3.9237    2.0231   50.5778 C.ar    1  ZINC000435005159   -0.1200
     31 C31        -5.1842    2.3215   51.0602 C.ar    1  ZINC000435005159   -0.1000
     32 H32        -8.2374    4.7020   48.6115 H       1  ZINC000435005159    0.1000
     33 H33        -9.1906    3.4832   49.4915 H       1  ZINC000435005159    0.1000
     34 H34        -9.4674    6.2941   50.4537 H       1  ZINC000435005159    0.0800
     35 H35       -10.1466    5.9546   48.8439 H       1  ZINC000435005159    0.0800
     36 H36       -10.7065    4.1403   51.2131 H       1  ZINC000435005159    0.0700
     37 H37       -11.6923    5.5889   50.8999 H       1  ZINC000435005159    0.0700
     38 H38       -11.8234    4.4180   48.5121 H       1  ZINC000435005159    0.4000
     39 H39       -13.0795    3.7785   47.2263 H       1  ZINC000435005159    0.1500
     40 H40       -14.3733    2.4648   45.5626 H       1  ZINC000435005159    0.1500
     41 H41       -15.2239    0.2403   46.1785 H       1  ZINC000435005159    0.1600
     42 H42       -13.5929    0.5268   49.9826 H       1  ZINC000435005159    0.1600
     43 H43        -8.2452    2.7126   51.4304 H       1  ZINC000435005159    0.4000
     44 H44        -7.5534    1.6343   53.2279 H       1  ZINC000435005159    0.0700
     45 H45        -6.2171    2.1915   54.2634 H       1  ZINC000435005159    0.0800
     46 H46        -7.7186    4.0824   55.0370 H       1  ZINC000435005159    0.0700
     47 H47        -9.0517    3.3077   54.1478 H       1  ZINC000435005159    0.0700
     48 H48       -10.0723    1.2984   54.9551 H       1  ZINC000435005159    0.1200
     49 H49       -10.4572   -0.2200   56.8550 H       1  ZINC000435005159    0.1200
     50 H50        -8.9475   -0.1664   58.7993 H       1  ZINC000435005159    0.1200
     51 H51        -7.0522    1.4051   58.8436 H       1  ZINC000435005159    0.1200
     52 H52        -6.6645    2.9202   56.9417 H       1  ZINC000435005159    0.1200
     53 H53        -4.3260    4.4462   53.5355 H       1  ZINC000435005159    0.1200
     54 H54        -2.0802    3.9090   52.6808 H       1  ZINC000435005159    0.1200
     55 H55        -1.8225    2.3576   50.7862 H       1  ZINC000435005159    0.1200
     56 H56        -3.8107    1.3428   49.7466 H       1  ZINC000435005159    0.1200
     57 H57        -6.0562    1.8764   50.6043 H       1  ZINC000435005159    0.1200
@<TRIPOS>BOND
     1     1     2    2
     2     2     3    1
     3     2    15   am
     4     3     4    1
     5     3    32    1
     6     3    33    1
     7     4     5    1
     8     4    34    1
     9     4    35    1
    10     5     6    1
    11     5    36    1
    12     5    37    1
    13     6     7   am
    14     6    38    1
    15     7     8    2
    16     7     9    1
    17     9    14   ar
    18     9    10   ar
    19    10    11   ar
    20    10    39    1
    21    11    12   ar
    22    11    40    1
    23    12    13   ar
    24    12    41    1
    25    13    14   ar
    26    14    42    1
    27    15    16    1
    28    15    43    1
    29    16    17    1
    30    16    18    1
    31    16    26    1
    32    18    19    1
    33    18    44    1
    34    18    45    1
    35    19    20    1
    36    19    46    1
    37    19    47    1
    38    20    25   ar
    39    20    21   ar
    40    21    22   ar
    41    21    48    1
    42    22    23   ar
    43    22    49    1
    44    23    24   ar
    45    23    50    1
    46    24    25   ar
    47    24    51    1
    48    25    52    1
    49    26    31   ar
    50    26    27   ar
    51    27    28   ar
    52    27    53    1
    53    28    29   ar
    54    28    54    1
    55    29    30   ar
    56    29    55    1
    57    30    31   ar
    58    30    56    1
    59    31    57    1
@<TRIPOS>SUBSTRUCTURE
     1 ZINC000435005159        1 TEMP              0 ****  ****    0 ROOT


##########                                Name:    ZINC000123469372
##########                DOCK_Rotatable_Bonds:                   7
##########                         Heavy_Atoms:                  25
##########                    Molecular_Weight:             341.382
##########                DOCK_Rotatable_Bonds:                   7
##########                       Formal_Charge:          -0.0300001
##########                     HBond_Acceptors:                   5
##########                        HBond_Donors:                   2
##########                         Heavy_Atoms:                  25
##########                          Grid_Score:          -31.904423
##########                     Grid_vdw_energy:          -31.991314
##########                      Grid_es_energy:            0.086892
##########           Internal_energy_repulsive:           11.737345

@<TRIPOS>MOLECULE
ZINC000123469372
 45 47 1 0 0
SMALL
USER_CHARGES


@<TRIPOS>ATOM
      1 C1         -5.5552    4.4238   51.5914 C.3     1  ZINC000123469372   -0.1700
      2 C2         -5.0890    2.9678   51.6534 C.3     1  ZINC000123469372    0.1500
      3 H3         -5.0477    2.6434   52.6932 H       1  ZINC000123469372    0.0900
      4 C4         -6.0717    2.0843   50.8823 C.3     1  ZINC000123469372   -0.1600
      5 C5         -6.1441    0.7058   51.5420 C.3     1  ZINC000123469372    0.1500
      6 H6         -5.2568    0.5496   52.1555 H       1  ZINC000123469372    0.1100
      7 O7         -6.2084   -0.3030   50.5320 O.3     1  ZINC000123469372   -0.5500
      8 C8         -7.3744    0.6278   52.4089 C.ar    1  ZINC000123469372   -0.1200
      9 C9         -8.1406   -0.5226   52.4195 C.ar    1  ZINC000123469372   -0.1100
     10 C10        -9.2691   -0.5942   53.2148 C.ar    1  ZINC000123469372   -0.1200
     11 C11        -9.6311    0.4847   53.9996 C.ar    1  ZINC000123469372   -0.1200
     12 C12        -8.8643    1.6348   53.9897 C.ar    1  ZINC000123469372   -0.1200
     13 C13        -7.7334    1.7048   53.1978 C.ar    1  ZINC000123469372   -0.1100
     14 N14        -3.7571    2.8555   51.0536 N.am    1  ZINC000123469372   -0.7100
     15 C15        -2.6583    3.0039   51.8198 C.2     1  ZINC000123469372    0.5700
     16 O16        -2.7725    3.2326   53.0100 O.2     1  ZINC000123469372   -0.5400
     17 C17        -1.3288    2.8901   51.2215 C.2     1  ZINC000123469372   -0.2200
     18 C18        -1.1477    2.1496   50.1003 C.2     1  ZINC000123469372    0.0000
     19 C19         0.2142    2.0530   49.5522 C.ar    1  ZINC000123469372   -0.1200
     20 C20         0.4454    1.6064   48.2519 C.ar    1  ZINC000123469372   -0.0900
     21 C21         1.7416    1.5312   47.7788 C.ar    1  ZINC000123469372    0.0700
     22 F22         1.9739    1.0998   46.5198 F       1  ZINC000123469372   -0.1400
     23 C23         2.8052    1.8973   48.5906 C.ar    1  ZINC000123469372   -0.1100
     24 C24         2.5853    2.3410   49.8818 C.ar    1  ZINC000123469372   -0.1200
     25 C25         1.2948    2.4230   50.3719 C.ar    1  ZINC000123469372    0.1300
     26 O26         1.0467    2.8537   51.6337 O.3     1  ZINC000123469372   -0.3000
     27 C27        -0.1554    3.6004   51.8448 C.3     1  ZINC000123469372    0.1100
     28 H28        -6.5462    4.5072   52.0377 H       1  ZINC000123469372    0.0700
     29 H29        -4.8551    5.0531   52.1408 H       1  ZINC000123469372    0.0600
     30 H30        -5.5964    4.7481   50.5516 H       1  ZINC000123469372    0.0600
     31 H31        -7.0596    2.5446   50.8929 H       1  ZINC000123469372    0.0900
     32 H32        -5.7321    1.9767   49.8521 H       1  ZINC000123469372    0.0800
     33 H33        -6.4343   -1.1814   50.8674 H       1  ZINC000123469372    0.3700
     34 H34        -7.8578   -1.3654   51.8063 H       1  ZINC000123469372    0.1200
     35 H35        -9.8682   -1.4928   53.2224 H       1  ZINC000123469372    0.1200
     36 H36       -10.5132    0.4290   54.6203 H       1  ZINC000123469372    0.1200
     37 H37        -9.1473    2.4778   54.6027 H       1  ZINC000123469372    0.1200
     38 H38        -7.1343    2.6033   53.1900 H       1  ZINC000123469372    0.1200
     39 H39        -3.6660    2.6746   50.1051 H       1  ZINC000123469372    0.4000
     40 H40        -1.9766    1.6464   49.6248 H       1  ZINC000123469372    0.1500
     41 H41        -0.3821    1.3211   47.6194 H       1  ZINC000123469372    0.1500
     42 H42         3.8143    1.8347   48.2109 H       1  ZINC000123469372    0.1500
     43 H43         3.4200    2.6231   50.5063 H       1  ZINC000123469372    0.1500
     44 H44        -0.0476    4.5900   51.4009 H       1  ZINC000123469372    0.0800
     45 H45        -0.3304    3.7063   52.9155 H       1  ZINC000123469372    0.1100
@<TRIPOS>BOND
     1     1     2    1
     2     1    28    1
     3     1    29    1
     4     1    30    1
     5     2     3    1
     6     2     4    1
     7     2    14    1
     8     4     5    1
     9     4    31    1
    10     4    32    1
    11     5     6    1
    12     5     7    1
    13     5     8    1
    14     7    33    1
    15     8    13   ar
    16     8     9   ar
    17     9    10   ar
    18     9    34    1
    19    10    11   ar
    20    10    35    1
    21    11    12   ar
    22    11    36    1
    23    12    13   ar
    24    12    37    1
    25    13    38    1
    26    14    15   am
    27    14    39    1
    28    15    16    2
    29    15    17    1
    30    17    27    1
    31    17    18    2
    32    18    19    1
    33    18    40    1
    34    19    25   ar
    35    19    20   ar
    36    20    21   ar
    37    20    41    1
    38    21    22    1
    39    21    23   ar
    40    23    24   ar
    41    23    42    1
    42    24    25   ar
    43    24    43    1
    44    25    26    1
    45    26    27    1
    46    27    44    1
    47    27    45    1
@<TRIPOS>SUBSTRUCTURE
     1 ZINC000123469372        1 TEMP              0 ****  ****    0 ROOT


##########                                Name:    ZINC000186316242
##########                DOCK_Rotatable_Bonds:                   7
##########                         Heavy_Atoms:                  28
##########                    Molecular_Weight:             392.525
##########                DOCK_Rotatable_Bonds:                   7
##########                       Formal_Charge:         -0.00999981
##########                     HBond_Acceptors:                   6
##########                        HBond_Donors:                   0
##########                         Heavy_Atoms:                  28
##########                          Grid_Score:          -31.893595
##########                     Grid_vdw_energy:          -32.312775
##########                      Grid_es_energy:            0.419180
##########           Internal_energy_repulsive:           22.211441

@<TRIPOS>MOLECULE
ZINC000186316242
 52 55 1 0 0
SMALL
USER_CHARGES


@<TRIPOS>ATOM
      1 C1          0.6894    2.2716   56.8934 C.3     1  ZINC000186316242   -0.1500
      2 C2         -0.7906    2.0103   57.1807 C.3     1  ZINC000186316242    0.1000
      3 N3         -1.3718    3.1771   57.8491 N.am    1  ZINC000186316242   -0.5900
      4 C4         -1.0283    3.4664   59.1198 C.2     1  ZINC000186316242    0.5900
      5 O5         -1.5109    4.4350   59.6748 O.2     1  ZINC000186316242   -0.5000
      6 C6         -0.0680    2.6091   59.8368 C.2     1  ZINC000186316242    0.0100
      7 C7          1.1658    3.0473   60.2155 C.2     1  ZINC000186316242   -0.2100
      8 S8          1.9854    1.7781   61.0167 S.3     1  ZINC000186316242    0.2000
      9 C9          0.6003    0.7162   60.7923 C.2     1  ZINC000186316242    0.0700
     10 C10         0.5182   -0.6876   61.2512 C.ar    1  ZINC000186316242    0.1900
     11 C11         1.5938   -1.2569   61.9320 C.ar    1  ZINC000186316242   -0.1500
     12 C12         1.5016   -2.5716   62.3555 C.ar    1  ZINC000186316242   -0.0700
     13 C13         0.3365   -3.2746   62.0846 C.ar    1  ZINC000186316242   -0.1600
     14 C14        -0.6923   -2.6478   61.4044 C.ar    1  ZINC000186316242    0.1100
     15 N15        -0.5817   -1.3942   61.0165 N.ar    1  ZINC000186316242   -0.4500
     16 N16        -0.3401    1.3556   60.1671 N.2     1  ZINC000186316242   -0.3900
     17 C17        -2.3266    4.0295   57.1363 C.3     1  ZINC000186316242    0.1400
     18 H18        -2.4809    4.9611   57.6808 H       1  ZINC000186316242    0.1000
     19 C19        -3.6706    3.2891   56.9484 C.3     1  ZINC000186316242   -0.1300
     20 C20        -4.1003    3.7083   55.5201 C.3     1  ZINC000186316242    0.0400
     21 N21        -2.8158    3.7440   54.7753 N.3     1  ZINC000186316242   -0.4900
     22 C22        -2.9331    4.5642   53.5623 C.3     1  ZINC000186316242    0.0800
     23 C23        -3.8667    3.8914   52.5893 C.ar    1  ZINC000186316242   -0.0700
     24 C24        -3.4853    2.7196   51.9631 C.ar    1  ZINC000186316242   -0.1000
     25 C25        -4.3417    2.1025   51.0705 C.ar    1  ZINC000186316242   -0.1200
     26 C26        -5.5798    2.6569   50.8047 C.ar    1  ZINC000186316242   -0.1200
     27 C27        -5.9616    3.8282   51.4318 C.ar    1  ZINC000186316242   -0.1200
     28 C28        -5.1069    4.4431   52.3275 C.ar    1  ZINC000186316242   -0.1100
     29 C29        -1.8225    4.3208   55.7107 C.3     1  ZINC000186316242    0.0400
     30 H30         1.1218    1.4035   56.3960 H       1  ZINC000186316242    0.0700
     31 H31         0.7855    3.1451   56.2486 H       1  ZINC000186316242    0.0500
     32 H32         1.2150    2.4525   57.8310 H       1  ZINC000186316242    0.0400
     33 H33        -1.3162    1.8295   56.2431 H       1  ZINC000186316242    0.1200
     34 H34        -0.8869    1.1368   57.8255 H       1  ZINC000186316242    0.0700
     35 H35         1.5619    4.0363   60.0383 H       1  ZINC000186316242    0.1900
     36 H36         2.4863   -0.6804   62.1256 H       1  ZINC000186316242    0.1400
     37 H37         2.3184   -3.0396   62.8846 H       1  ZINC000186316242    0.1400
     38 H38         0.2338   -4.3020   62.4015 H       1  ZINC000186316242    0.1400
     39 H39        -1.6001   -3.1928   61.1919 H       1  ZINC000186316242    0.1600
     40 H40        -3.5280    2.2100   57.0072 H       1  ZINC000186316242    0.0900
     41 H41        -4.4014    3.6233   57.6849 H       1  ZINC000186316242    0.0700
     42 H42        -4.7748    2.9687   55.0886 H       1  ZINC000186316242    0.0800
     43 H43        -4.5656    4.6940   55.5321 H       1  ZINC000186316242    0.0400
     44 H44        -3.3271    5.5461   53.8243 H       1  ZINC000186316242    0.0400
     45 H45        -1.9506    4.6776   53.1039 H       1  ZINC000186316242    0.0800
     46 H46        -2.5180    2.2865   52.1707 H       1  ZINC000186316242    0.1200
     47 H47        -4.0434    1.1874   50.5807 H       1  ZINC000186316242    0.1200
     48 H48        -6.2487    2.1751   50.1069 H       1  ZINC000186316242    0.1200
     49 H49        -6.9288    4.2615   51.2239 H       1  ZINC000186316242    0.1200
     50 H50        -5.4052    5.3581   52.8174 H       1  ZINC000186316242    0.1200
     51 H51        -1.7461    5.3968   55.5541 H       1  ZINC000186316242    0.0500
     52 H52        -0.8512    3.8507   55.5572 H       1  ZINC000186316242    0.0800
@<TRIPOS>BOND
     1     1     2    1
     2     1    30    1
     3     1    31    1
     4     1    32    1
     5     2     3    1
     6     2    33    1
     7     2    34    1
     8     3     4   am
     9     3    17    1
    10     4     5    2
    11     4     6    1
    12     6    16    1
    13     6     7    2
    14     7     8    1
    15     7    35    1
    16     8     9    1
    17     9    10    1
    18     9    16    2
    19    10    15   ar
    20    10    11   ar
    21    11    12   ar
    22    11    36    1
    23    12    13   ar
    24    12    37    1
    25    13    14   ar
    26    13    38    1
    27    14    15   ar
    28    14    39    1
    29    17    18    1
    30    17    29    1
    31    17    19    1
    32    19    20    1
    33    19    40    1
    34    19    41    1
    35    20    21    1
    36    20    42    1
    37    20    43    1
    38    21    22    1
    39    21    29    1
    40    22    23    1
    41    22    44    1
    42    22    45    1
    43    23    28   ar
    44    23    24   ar
    45    24    25   ar
    46    24    46    1
    47    25    26   ar
    48    25    47    1
    49    26    27   ar
    50    26    48    1
    51    27    28   ar
    52    27    49    1
    53    28    50    1
    54    29    51    1
    55    29    52    1
@<TRIPOS>SUBSTRUCTURE
     1 ZINC000186316242        1 TEMP              0 ****  ****    0 ROOT


##########                                Name:    ZINC000464139057
##########                DOCK_Rotatable_Bonds:                   9
##########                         Heavy_Atoms:                  30
##########                    Molecular_Weight:              413.56
##########                DOCK_Rotatable_Bonds:                   9
##########                       Formal_Charge:         2.38419e-07
##########                     HBond_Acceptors:                   6
##########                        HBond_Donors:                   2
##########                         Heavy_Atoms:                  30
##########                          Grid_Score:          -31.858179
##########                     Grid_vdw_energy:          -30.909834
##########                      Grid_es_energy:           -0.948345
##########           Internal_energy_repulsive:           11.078517

@<TRIPOS>MOLECULE
ZINC000464139057
 65 67 1 0 0
SMALL
USER_CHARGES


@<TRIPOS>ATOM
      1 C1          1.8109    3.4224   55.0445 C.3     1  ZINC000464139057   -0.1800
      2 C2          1.0909    4.4267   55.9465 C.3     1  ZINC000464139057    0.0700
      3 H3          1.8210    4.9514   56.5627 H       1  ZINC000464139057    0.1200
      4 C4          0.3298    5.4380   55.0815 C.3     1  ZINC000464139057    0.0800
      5 N5         -0.7688    4.7333   54.4019 N.am    1  ZINC000464139057   -0.6100
      6 C6         -0.9482    4.8478   53.0711 C.2     1  ZINC000464139057    0.5600
      7 O7         -0.1966    5.5409   52.4139 O.2     1  ZINC000464139057   -0.5300
      8 C8         -2.0593    4.1301   52.4105 C.ar    1  ZINC000464139057   -0.1200
      9 C9         -3.3570    4.6406   52.4698 C.ar    1  ZINC000464139057   -0.0900
     10 C10        -4.3892    3.9663   51.8509 C.ar    1  ZINC000464139057   -0.1000
     11 C11        -4.1403    2.7862   51.1729 C.ar    1  ZINC000464139057   -0.0900
     12 C12        -5.2729    2.0547   50.4996 C.3     1  ZINC000464139057    0.1800
     13 N13        -5.8989    1.1380   51.4555 N.am    1  ZINC000464139057   -0.7400
     14 C14        -7.0609    1.4743   52.0497 C.2     1  ZINC000464139057    0.7000
     15 O15        -7.5905    2.5377   51.7911 O.2     1  ZINC000464139057   -0.5900
     16 N16        -7.6361    0.6316   52.9304 N.am    1  ZINC000464139057   -0.7500
     17 C17        -8.8983    0.9978   53.5775 C.3     1  ZINC000464139057    0.1400
     18 C18        -9.7195   -0.2651   53.8451 C.3     1  ZINC000464139057   -0.0900
     19 C19       -11.1158    0.1219   54.2593 C.2     1  ZINC000464139057   -0.1200
     20 C20       -12.0360    0.2726   53.3603 C.2     1  ZINC000464139057   -0.1500
     21 C21       -13.4425    0.6612   53.7626 C.3     1  ZINC000464139057   -0.0900
     22 C22       -14.1050   -0.5386   54.4432 C.3     1  ZINC000464139057   -0.1100
     23 C23       -13.7678   -0.5713   55.9234 C.3     1  ZINC000464139057   -0.1200
     24 C24       -12.2996   -0.8351   56.2076 C.3     1  ZINC000464139057   -0.1100
     25 C25       -11.4369    0.3264   55.7244 C.3     1  ZINC000464139057   -0.0800
     26 C26        -2.8562    2.2749   51.1100 C.ar    1  ZINC000464139057   -0.1000
     27 C27        -1.8142    2.9421   51.7200 C.ar    1  ZINC000464139057   -0.0700
     28 C28        -1.6657    3.8999   55.2183 C.3     1  ZINC000464139057    0.0700
     29 C29        -0.8074    2.9636   56.0766 C.3     1  ZINC000464139057    0.0700
     30 H30        -0.3014    2.2427   55.4345 H       1  ZINC000464139057    0.0700
     31 C31        -1.7005    2.2217   57.0730 C.3     1  ZINC000464139057   -0.1500
     32 O32         0.1651    3.7347   56.7880 O.3     1  ZINC000464139057   -0.3700
     33 H33         1.0801    2.8980   54.4286 H       1  ZINC000464139057    0.0600
     34 H34         2.5153    3.9508   54.4021 H       1  ZINC000464139057    0.0700
     35 H35         2.3503    2.7025   55.6602 H       1  ZINC000464139057    0.0700
     36 H36        -0.0759    6.2288   55.7125 H       1  ZINC000464139057    0.0800
     37 H37         1.0039    5.8680   54.3407 H       1  ZINC000464139057    0.1000
     38 H38        -3.5526    5.5613   52.9994 H       1  ZINC000464139057    0.1300
     39 H39        -5.3938    4.3602   51.8961 H       1  ZINC000464139057    0.1300
     40 H40        -6.0125    2.7744   50.1486 H       1  ZINC000464139057    0.0800
     41 H41        -4.8867    1.4881   49.6523 H       1  ZINC000464139057    0.0800
     42 H42        -5.4770    0.2890   51.6610 H       1  ZINC000464139057    0.4000
     43 H43        -7.2142   -0.2174   53.1358 H       1  ZINC000464139057    0.4000
     44 H44        -8.6900    1.5023   54.5210 H       1  ZINC000464139057    0.0700
     45 H45        -9.4609    1.6654   52.9249 H       1  ZINC000464139057    0.0700
     46 H46        -9.7636   -0.8686   52.9385 H       1  ZINC000464139057    0.0700
     47 H47        -9.2505   -0.8412   54.6427 H       1  ZINC000464139057    0.0800
     48 H48       -11.7982    0.1205   52.3177 H       1  ZINC000464139057    0.1100
     49 H49       -13.4057    1.5012   54.4563 H       1  ZINC000464139057    0.0700
     50 H50       -14.0127    0.9401   52.8765 H       1  ZINC000464139057    0.0700
     51 H51       -15.1861   -0.4675   54.3230 H       1  ZINC000464139057    0.0600
     52 H52       -13.7521   -1.4571   53.9744 H       1  ZINC000464139057    0.0600
     53 H53       -14.0415    0.3871   56.3646 H       1  ZINC000464139057    0.0600
     54 H54       -14.3607   -1.3527   56.3988 H       1  ZINC000464139057    0.0600
     55 H55       -12.1595   -0.9646   57.2808 H       1  ZINC000464139057    0.0600
     56 H56       -11.9927   -1.7461   55.6938 H       1  ZINC000464139057    0.0600
     57 H57       -10.5118    0.3593   56.2999 H       1  ZINC000464139057    0.0700
     58 H58       -11.9812    1.2627   55.8481 H       1  ZINC000464139057    0.0700
     59 H59        -2.6686    1.3534   50.5788 H       1  ZINC000464139057    0.1300
     60 H60        -0.8122    2.5422   51.6699 H       1  ZINC000464139057    0.1300
     61 H61        -2.2722    4.5359   55.8630 H       1  ZINC000464139057    0.0800
     62 H62        -2.3130    3.3115   54.5681 H       1  ZINC000464139057    0.1000
     63 H63        -2.4433    1.6373   56.5301 H       1  ZINC000464139057    0.0800
     64 H64        -1.0897    1.5562   57.6829 H       1  ZINC000464139057    0.0700
     65 H65        -2.2049    2.9430   57.7160 H       1  ZINC000464139057    0.0700
@<TRIPOS>BOND
     1     1     2    1
     2     1    33    1
     3     1    34    1
     4     1    35    1
     5     2     3    1
     6     2    32    1
     7     2     4    1
     8     4     5    1
     9     4    36    1
    10     4    37    1
    11     5     6   am
    12     5    28    1
    13     6     7    2
    14     6     8    1
    15     8    27   ar
    16     8     9   ar
    17     9    10   ar
    18     9    38    1
    19    10    11   ar
    20    10    39    1
    21    11    12    1
    22    11    26   ar
    23    12    13    1
    24    12    40    1
    25    12    41    1
    26    13    14   am
    27    13    42    1
    28    14    15    2
    29    14    16   am
    30    16    17    1
    31    16    43    1
    32    17    18    1
    33    17    44    1
    34    17    45    1
    35    18    19    1
    36    18    46    1
    37    18    47    1
    38    19    25    1
    39    19    20    2
    40    20    21    1
    41    20    48    1
    42    21    22    1
    43    21    49    1
    44    21    50    1
    45    22    23    1
    46    22    51    1
    47    22    52    1
    48    23    24    1
    49    23    53    1
    50    23    54    1
    51    24    25    1
    52    24    55    1
    53    24    56    1
    54    25    57    1
    55    25    58    1
    56    26    27   ar
    57    26    59    1
    58    27    60    1
    59    28    29    1
    60    28    61    1
    61    28    62    1
    62    29    30    1
    63    29    31    1
    64    29    32    1
    65    31    63    1
    66    31    64    1
    67    31    65    1
@<TRIPOS>SUBSTRUCTURE
     1 ZINC000464139057        1 TEMP              0 ****  ****    0 ROOT


##########                                Name:    ZINC000945148121
##########                DOCK_Rotatable_Bonds:                   6
##########                         Heavy_Atoms:                  24
##########                    Molecular_Weight:             332.446
##########                DOCK_Rotatable_Bonds:                   6
##########                       Formal_Charge:           0.0100009
##########                     HBond_Acceptors:                   6
##########                        HBond_Donors:                   2
##########                         Heavy_Atoms:                  24
##########                          Grid_Score:          -31.822269
##########                     Grid_vdw_energy:          -28.773085
##########                      Grid_es_energy:           -3.049186
##########           Internal_energy_repulsive:           19.847595

@<TRIPOS>MOLECULE
ZINC000945148121
 52 54 1 0 0
SMALL
USER_CHARGES


@<TRIPOS>ATOM
      1 O1          0.2999    3.4085   59.6719 O.2     1  ZINC000945148121   -0.5100
      2 C2          0.2509    2.2268   59.4034 C.2     1  ZINC000945148121    0.5200
      3 C3          0.6431    1.2024   60.4368 C.3     1  ZINC000945148121   -0.0500
      4 C4         -0.2614    1.3266   61.6358 C.2     1  ZINC000945148121    0.0100
      5 C5         -0.4569    0.3870   62.5804 C.2     1  ZINC000945148121   -0.0500
      6 N6         -1.3476    0.9085   63.4794 N.pl3   1  ZINC000945148121   -0.5700
      7 C7         -1.6656    2.1496   63.0527 C.2     1  ZINC000945148121    0.1800
      8 N8         -1.0084    2.3948   61.9521 N.2     1  ZINC000945148121   -0.4700
      9 N9         -0.1596    1.8295   58.1827 N.am    1  ZINC000945148121   -0.7300
     10 C10        -0.5409    2.8253   57.1781 C.3     1  ZINC000945148121    0.1500
     11 C11         0.5126    2.8594   56.0685 C.3     1  ZINC000945148121   -0.1400
     12 C12         0.1286    3.9257   55.0379 C.3     1  ZINC000945148121    0.1100
     13 N13        -1.2366    3.6572   54.5657 N.am    1  ZINC000945148121   -0.6100
     14 C14        -1.4976    3.5429   53.2484 C.2     1  ZINC000945148121    0.5200
     15 O15        -0.6011    3.6604   52.4402 O.2     1  ZINC000945148121   -0.5400
     16 C16        -2.9035    3.2691   52.7799 C.3     1  ZINC000945148121   -0.1000
     17 C17        -3.7339    4.5165   52.9166 C.3     1  ZINC000945148121   -0.1200
     18 C18        -5.2004    4.2119   53.2773 C.3     1  ZINC000945148121   -0.1200
     19 C19        -5.7708    3.0123   52.4969 C.3     1  ZINC000945148121   -0.1200
     20 C20        -5.3574    3.0174   51.0501 C.3     1  ZINC000945148121   -0.1200
     21 C21        -4.0925    2.1479   50.8989 C.3     1  ZINC000945148121   -0.1200
     22 C22        -2.8830    2.8545   51.2944 C.3     1  ZINC000945148121   -0.1000
     23 C23        -2.3118    3.5151   55.5571 C.3     1  ZINC000945148121    0.1100
     24 C24        -1.9004    2.4533   56.5818 C.3     1  ZINC000945148121   -0.1400
     25 H25         0.5481    0.2030   60.0121 H       1  ZINC000945148121    0.1000
     26 H26         1.6759    1.3709   60.7418 H       1  ZINC000945148121    0.1000
     27 H27         0.0009   -0.5904   62.6206 H       1  ZINC000945148121    0.1800
     28 H28        -1.6869    0.4687   64.2747 H       1  ZINC000945148121    0.4200
     29 H29        -2.3476    2.8284   63.5431 H       1  ZINC000945148121    0.2100
     30 H30        -0.2025    0.8842   57.9693 H       1  ZINC000945148121    0.4000
     31 H31        -0.6062    3.8073   57.6467 H       1  ZINC000945148121    0.0900
     32 H32         1.4850    3.1014   56.4974 H       1  ZINC000945148121    0.0800
     33 H33         0.5610    1.8848   55.5828 H       1  ZINC000945148121    0.0700
     34 H34         0.1678    4.9119   55.5005 H       1  ZINC000945148121    0.0700
     35 H35         0.8204    3.8867   54.1965 H       1  ZINC000945148121    0.1000
     36 H36        -3.3393    2.4684   53.3776 H       1  ZINC000945148121    0.1000
     37 H37        -3.3019    5.1440   53.6963 H       1  ZINC000945148121    0.0700
     38 H38        -3.7087    5.0621   51.9733 H       1  ZINC000945148121    0.0700
     39 H39        -5.2631    3.9989   54.3445 H       1  ZINC000945148121    0.0600
     40 H40        -5.8058    5.0920   53.0606 H       1  ZINC000945148121    0.0700
     41 H41        -5.4195    2.0906   52.9608 H       1  ZINC000945148121    0.0600
     42 H42        -6.8590    3.0403   52.5528 H       1  ZINC000945148121    0.0600
     43 H43        -6.1601    2.6055   50.4384 H       1  ZINC000945148121    0.0600
     44 H44        -5.1400    4.0380   50.7350 H       1  ZINC000945148121    0.0700
     45 H45        -4.1998    1.2578   51.5188 H       1  ZINC000945148121    0.0600
     46 H46        -3.9974    1.8411   49.8574 H       1  ZINC000945148121    0.0600
     47 H47        -2.7797    3.7487   50.6797 H       1  ZINC000945148121    0.0700
     48 H48        -2.0233    2.2074   51.1203 H       1  ZINC000945148121    0.0700
     49 H49        -2.4715    4.4678   56.0619 H       1  ZINC000945148121    0.0700
     50 H50        -3.2300    3.2051   55.0582 H       1  ZINC000945148121    0.1000
     51 H51        -1.8292    1.4826   56.0913 H       1  ZINC000945148121    0.0700
     52 H52        -2.6454    2.4064   57.3761 H       1  ZINC000945148121    0.0800
@<TRIPOS>BOND
     1     1     2    2
     2     2     3    1
     3     2     9   am
     4     3     4    1
     5     3    25    1
     6     3    26    1
     7     4     8    1
     8     4     5    2
     9     5     6    1
    10     5    27    1
    11     6     7    1
    12     6    28    1
    13     7     8    2
    14     7    29    1
    15     9    10    1
    16     9    30    1
    17    10    24    1
    18    10    11    1
    19    10    31    1
    20    11    12    1
    21    11    32    1
    22    11    33    1
    23    12    13    1
    24    12    34    1
    25    12    35    1
    26    13    14   am
    27    13    23    1
    28    14    15    2
    29    14    16    1
    30    16    22    1
    31    16    17    1
    32    16    36    1
    33    17    18    1
    34    17    37    1
    35    17    38    1
    36    18    19    1
    37    18    39    1
    38    18    40    1
    39    19    20    1
    40    19    41    1
    41    19    42    1
    42    20    21    1
    43    20    43    1
    44    20    44    1
    45    21    22    1
    46    21    45    1
    47    21    46    1
    48    22    47    1
    49    22    48    1
    50    23    24    1
    51    23    49    1
    52    23    50    1
    53    24    51    1
    54    24    52    1
@<TRIPOS>SUBSTRUCTURE
     1 ZINC000945148121        1 TEMP              0 ****  ****    0 ROOT


##########                                Name:    ZINC000494558165
##########                DOCK_Rotatable_Bonds:                  11
##########                         Heavy_Atoms:                  28
##########                    Molecular_Weight:             409.506
##########                DOCK_Rotatable_Bonds:                  11
##########                       Formal_Charge:        -6.55651e-07
##########                     HBond_Acceptors:                   9
##########                        HBond_Donors:                   3
##########                         Heavy_Atoms:                  28
##########                          Grid_Score:          -31.812672
##########                     Grid_vdw_energy:          -29.715834
##########                      Grid_es_energy:           -2.096837
##########           Internal_energy_repulsive:           46.184490

@<TRIPOS>MOLECULE
ZINC000494558165
 55 57 1 0 0
SMALL
USER_CHARGES


@<TRIPOS>ATOM
      1 O1        -12.2012    0.7998   60.6271 O.2     1  ZINC000494558165   -0.4400
      2 C2        -11.4628    0.1830   59.8895 C.2     1  ZINC000494558165    0.5100
      3 C3        -11.9257   -0.1995   58.5073 C.3     1  ZINC000494558165    0.0300
      4 N4        -12.7683   -1.4001   58.5879 N.3     1  ZINC000494558165   -0.5000
      5 C5        -14.0948   -1.0770   59.1300 C.3     1  ZINC000494558165    0.0500
      6 C6        -14.3679   -1.9442   60.3605 C.3     1  ZINC000494558165   -0.1100
      7 C7        -15.1659   -3.1817   59.9453 C.3     1  ZINC000494558165    0.0800
      8 O8        -16.5531   -2.8487   59.8635 O.3     1  ZINC000494558165   -0.5700
      9 C9        -12.8802   -2.0536   57.2769 C.3     1  ZINC000494558165    0.1200
     10 H10       -13.8890   -2.4407   57.1329 H       1  ZINC000494558165    0.1000
     11 C11       -11.8468   -3.1937   57.1569 C.3     1  ZINC000494558165   -0.1200
     12 C12       -10.6442   -2.4832   56.5002 C.3     1  ZINC000494558165   -0.0900
     13 C13       -11.2412   -1.3272   55.7267 C.ar    1  ZINC000494558165   -0.0900
     14 C14       -10.7030   -0.5526   54.7131 C.ar    1  ZINC000494558165   -0.1100
     15 C15       -11.4458    0.4655   54.1471 C.ar    1  ZINC000494558165   -0.1100
     16 C16       -12.7304    0.7122   54.5932 C.ar    1  ZINC000494558165   -0.1200
     17 C17       -13.2691   -0.0596   55.6044 C.ar    1  ZINC000494558165   -0.1000
     18 C18       -12.5288   -1.0795   56.1728 C.ar    1  ZINC000494558165   -0.1300
     19 N19       -10.2258   -0.1558   60.3036 N.am    1  ZINC000494558165   -0.6900
     20 C20        -9.8118    0.1863   61.5398 C.2     1  ZINC000494558165    0.7000
     21 O21       -10.5544    0.7990   62.2816 O.2     1  ZINC000494558165   -0.5200
     22 N22        -8.5742   -0.1510   61.9534 N.am    1  ZINC000494558165   -0.7300
     23 C23        -8.1247    0.2193   63.2976 C.3     1  ZINC000494558165    0.1700
     24 H24        -7.1159   -0.1587   63.4638 H       1  ZINC000494558165    0.1200
     25 C25        -8.1336    1.7512   63.4425 C.3     1  ZINC000494558165   -0.1400
     26 C26        -7.9764    2.0548   64.9548 C.3     1  ZINC000494558165   -0.5800
     27 S27        -9.0882    0.8191   65.7272 S.o2    1  ZINC000494558165    2.4000
     28 O28        -8.4425    0.2448   66.8553 O.2     1  ZINC000494558165   -0.9300
     29 O29       -10.3886    1.3754   65.8632 O.2     1  ZINC000494558165   -0.9300
     30 C30        -9.0819   -0.3793   64.3475 C.3     1  ZINC000494558165   -0.6200
     31 H31       -12.5013    0.6202   58.0771 H       1  ZINC000494558165    0.0700
     32 H32       -11.0598   -0.4048   57.8780 H       1  ZINC000494558165    0.1200
     33 H33       -14.1253   -0.0249   59.4130 H       1  ZINC000494558165    0.0900
     34 H34       -14.8541   -1.2716   58.3726 H       1  ZINC000494558165    0.0400
     35 H35       -13.4216   -2.2540   60.8040 H       1  ZINC000494558165    0.0700
     36 H36       -14.9402   -1.3705   61.0895 H       1  ZINC000494558165    0.0800
     37 H37       -14.8177   -3.5291   58.9725 H       1  ZINC000494558165    0.0500
     38 H38       -15.0245   -3.9701   60.6847 H       1  ZINC000494558165    0.0400
     39 H39       -17.1397   -3.6159   59.8154 H       1  ZINC000494558165    0.3800
     40 H40       -11.5790   -3.5791   58.1407 H       1  ZINC000494558165    0.0900
     41 H41       -12.2226   -3.9914   56.5162 H       1  ZINC000494558165    0.0800
     42 H42        -9.9599   -2.1139   57.2640 H       1  ZINC000494558165    0.0800
     43 H43       -10.1262   -3.1633   55.8241 H       1  ZINC000494558165    0.0800
     44 H44        -9.6992   -0.7446   54.3641 H       1  ZINC000494558165    0.1200
     45 H45       -11.0231    1.0677   53.3564 H       1  ZINC000494558165    0.1300
     46 H46       -13.3123    1.5080   54.1521 H       1  ZINC000494558165    0.1200
     47 H47       -14.2729    0.1341   55.9528 H       1  ZINC000494558165    0.1200
     48 H48        -9.6335   -0.6458   59.7121 H       1  ZINC000494558165    0.4100
     49 H49        -7.9811   -0.6390   61.3609 H       1  ZINC000494558165    0.4000
     50 H50        -7.3016    2.1836   62.8865 H       1  ZINC000494558165    0.1100
     51 H51        -9.0776    2.1552   63.0767 H       1  ZINC000494558165    0.0900
     52 H52        -6.9458    1.9015   65.2750 H       1  ZINC000494558165    0.1400
     53 H53        -8.3069    3.0682   65.1824 H       1  ZINC000494558165    0.1400
     54 H54       -10.0842   -0.4835   63.9321 H       1  ZINC000494558165    0.1500
     55 H55        -8.7097   -1.3458   64.6873 H       1  ZINC000494558165    0.1500
@<TRIPOS>BOND
     1     1     2    2
     2     2     3    1
     3     2    19   am
     4     3     4    1
     5     3    31    1
     6     3    32    1
     7     4     5    1
     8     4     9    1
     9     5     6    1
    10     5    33    1
    11     5    34    1
    12     6     7    1
    13     6    35    1
    14     6    36    1
    15     7     8    1
    16     7    37    1
    17     7    38    1
    18     8    39    1
    19     9    10    1
    20     9    18    1
    21     9    11    1
    22    11    12    1
    23    11    40    1
    24    11    41    1
    25    12    13    1
    26    12    42    1
    27    12    43    1
    28    13    18   ar
    29    13    14   ar
    30    14    15   ar
    31    14    44    1
    32    15    16   ar
    33    15    45    1
    34    16    17   ar
    35    16    46    1
    36    17    18   ar
    37    17    47    1
    38    19    20   am
    39    19    48    1
    40    20    21    2
    41    20    22   am
    42    22    23    1
    43    22    49    1
    44    23    24    1
    45    23    30    1
    46    23    25    1
    47    25    26    1
    48    25    50    1
    49    25    51    1
    50    26    27    1
    51    26    52    1
    52    26    53    1
    53    27    28    2
    54    27    29    2
    55    27    30    1
    56    30    54    1
    57    30    55    1
@<TRIPOS>SUBSTRUCTURE
     1 ZINC000494558165        1 TEMP              0 ****  ****    0 ROOT


##########                                Name:    ZINC000523863446
##########                DOCK_Rotatable_Bonds:                  10
##########                         Heavy_Atoms:                  29
##########                    Molecular_Weight:             396.533
##########                DOCK_Rotatable_Bonds:                  10
##########                       Formal_Charge:          -0.0200008
##########                     HBond_Acceptors:                   6
##########                        HBond_Donors:                   1
##########                         Heavy_Atoms:                  29
##########                          Grid_Score:          -31.811394
##########                     Grid_vdw_energy:          -31.460140
##########                      Grid_es_energy:           -0.351254
##########           Internal_energy_repulsive:           21.354671

@<TRIPOS>MOLECULE
ZINC000523863446
 61 63 1 0 0
SMALL
USER_CHARGES


@<TRIPOS>ATOM
      1 C1        -13.3220    3.5430   48.0549 C.3     1  ZINC000523863446   -0.1700
      2 C2        -12.7501    2.2457   48.6304 C.3     1  ZINC000523863446    0.1500
      3 H3        -11.7667    2.0592   48.1988 H       1  ZINC000523863446    0.1300
      4 C4        -12.6260    2.3718   50.1270 C.2     1  ZINC000523863446    0.5100
      5 O5        -13.4233    1.8138   50.8507 O.2     1  ZINC000523863446   -0.5100
      6 N6        -11.6292    3.1049   50.6611 N.am    1  ZINC000523863446   -0.6000
      7 C7        -10.6673    3.7806   49.7869 C.3     1  ZINC000523863446    0.0700
      8 C8        -11.5076    3.2260   52.1162 C.3     1  ZINC000523863446    0.1000
      9 C9        -10.3825    2.3485   52.6010 C.2     1  ZINC000523863446    0.5000
     10 O10       -10.5187    1.1435   52.6211 O.2     1  ZINC000523863446   -0.5200
     11 N11        -9.2250    2.9028   53.0124 N.am    1  ZINC000523863446   -0.7200
     12 C12        -8.1306    2.0497   53.4821 C.3     1  ZINC000523863446    0.1900
     13 H13        -8.5289    1.0811   53.7844 H       1  ZINC000523863446    0.1000
     14 C14        -7.4430    2.7136   54.6768 C.3     1  ZINC000523863446   -0.1200
     15 C15        -8.3283    2.5743   55.9169 C.3     1  ZINC000523863446   -0.0900
     16 C16        -8.0822    1.2121   56.5686 C.3     1  ZINC000523863446   -0.1200
     17 C17        -8.9675    1.0727   57.8088 C.3     1  ZINC000523863446   -0.1200
     18 C18        -8.6285    2.1834   58.8049 C.3     1  ZINC000523863446   -0.1200
     19 C19        -8.8745    3.5456   58.1531 C.3     1  ZINC000523863446   -0.1200
     20 C20        -7.9892    3.6850   56.9131 C.3     1  ZINC000523863446   -0.1100
     21 C21        -7.1312    1.8573   52.3706 C.ar    1  ZINC000523863446   -0.0900
     22 C22        -6.5102    2.9536   51.8020 C.ar    1  ZINC000523863446   -0.1100
     23 C23        -5.5935    2.7770   50.7825 C.ar    1  ZINC000523863446   -0.1200
     24 C24        -5.2975    1.5040   50.3320 C.ar    1  ZINC000523863446   -0.1200
     25 C25        -5.9178    0.4077   50.9012 C.ar    1  ZINC000523863446   -0.1200
     26 C26        -6.8313    0.5840   51.9236 C.ar    1  ZINC000523863446   -0.1000
     27 N27       -13.6447    1.1317   48.3067 N.pl3   1  ZINC000523863446   -0.3600
     28 C28       -14.9358    1.2347   47.9277 C.2     1  ZINC000523863446    0.0600
     29 C29       -15.4066   -0.0174   47.7229 C.2     1  ZINC000523863446   -0.2700
     30 C30       -14.3677   -0.9162   47.9859 C.2     1  ZINC000523863446    0.0500
     31 N31       -13.3093   -0.2282   48.3300 N.2     1  ZINC000523863446   -0.2900
     32 H32       -14.3054    3.7294   48.4865 H       1  ZINC000523863446    0.0700
     33 H33       -12.6563    4.3717   48.2958 H       1  ZINC000523863446    0.1000
     34 H34       -13.4116    3.4517   46.9725 H       1  ZINC000523863446    0.0800
     35 H35       -11.0307    4.7808   49.5511 H       1  ZINC000523863446    0.0700
     36 H36        -9.7049    3.8538   50.2936 H       1  ZINC000523863446    0.0800
     37 H37       -10.5503    3.2099   48.8657 H       1  ZINC000523863446    0.0800
     38 H38       -11.2983    4.2632   52.3781 H       1  ZINC000523863446    0.1100
     39 H39       -12.4403    2.9138   52.5859 H       1  ZINC000523863446    0.1100
     40 H40        -9.1165    3.8666   52.9976 H       1  ZINC000523863446    0.4000
     41 H41        -6.4835    2.2296   54.8591 H       1  ZINC000523863446    0.0800
     42 H42        -7.2820    3.7702   54.4623 H       1  ZINC000523863446    0.0700
     43 H43        -9.3758    2.6542   55.6264 H       1  ZINC000523863446    0.0700
     44 H44        -8.3238    0.4209   55.8590 H       1  ZINC000523863446    0.0600
     45 H45        -7.0347    1.1322   56.8592 H       1  ZINC000523863446    0.0600
     46 H46       -10.0150    1.1525   57.5182 H       1  ZINC000523863446    0.0600
     47 H47        -8.7922    0.1022   58.2731 H       1  ZINC000523863446    0.0600
     48 H48        -9.2591    2.0840   59.6883 H       1  ZINC000523863446    0.0600
     49 H49        -7.5809    2.1035   59.0954 H       1  ZINC000523863446    0.0600
     50 H50        -9.9220    3.6254   57.8625 H       1  ZINC000523863446    0.0600
     51 H51        -8.6329    4.3368   58.8628 H       1  ZINC000523863446    0.0600
     52 H52        -6.9417    3.6051   57.2036 H       1  ZINC000523863446    0.0600
     53 H53        -8.1645    4.6554   56.4488 H       1  ZINC000523863446    0.0600
     54 H54        -6.7414    3.9480   52.1541 H       1  ZINC000523863446    0.1200
     55 H55        -5.1088    3.6335   50.3377 H       1  ZINC000523863446    0.1200
     56 H56        -4.5818    1.3662   49.5349 H       1  ZINC000523863446    0.1200
     57 H57        -5.6868   -0.5867   50.5490 H       1  ZINC000523863446    0.1200
     58 H58        -7.3160   -0.2726   52.3684 H       1  ZINC000523863446    0.1200
     59 H59       -15.4934    2.1519   47.8093 H       1  ZINC000523863446    0.1700
     60 H60       -16.4078   -0.2768   47.4121 H       1  ZINC000523863446    0.1500
     61 H61       -14.4274   -1.9921   47.9126 H       1  ZINC000523863446    0.1800
@<TRIPOS>BOND
     1     1     2    1
     2     1    32    1
     3     1    33    1
     4     1    34    1
     5     2     3    1
     6     2     4    1
     7     2    27    1
     8     4     5    2
     9     4     6   am
    10     6     7    1
    11     6     8    1
    12     7    35    1
    13     7    36    1
    14     7    37    1
    15     8     9    1
    16     8    38    1
    17     8    39    1
    18     9    10    2
    19     9    11   am
    20    11    12    1
    21    11    40    1
    22    12    13    1
    23    12    14    1
    24    12    21    1
    25    14    15    1
    26    14    41    1
    27    14    42    1
    28    15    20    1
    29    15    16    1
    30    15    43    1
    31    16    17    1
    32    16    44    1
    33    16    45    1
    34    17    18    1
    35    17    46    1
    36    17    47    1
    37    18    19    1
    38    18    48    1
    39    18    49    1
    40    19    20    1
    41    19    50    1
    42    19    51    1
    43    20    52    1
    44    20    53    1
    45    21    26   ar
    46    21    22   ar
    47    22    23   ar
    48    22    54    1
    49    23    24   ar
    50    23    55    1
    51    24    25   ar
    52    24    56    1
    53    25    26   ar
    54    25    57    1
    55    26    58    1
    56    27    31    1
    57    27    28    1
    58    28    29    2
    59    28    59    1
    60    29    30    1
    61    29    60    1
    62    30    31    2
    63    30    61    1
@<TRIPOS>SUBSTRUCTURE
     1 ZINC000523863446        1 TEMP              0 ****  ****    0 ROOT


##########                                Name:    ZINC001109404798
##########                DOCK_Rotatable_Bonds:                   7
##########                         Heavy_Atoms:                  25
##########                    Molecular_Weight:              360.48
##########                DOCK_Rotatable_Bonds:                   7
##########                       Formal_Charge:           0.0100002
##########                     HBond_Acceptors:                   7
##########                        HBond_Donors:                   1
##########                         Heavy_Atoms:                  25
##########                          Grid_Score:          -31.733528
##########                     Grid_vdw_energy:          -30.958925
##########                      Grid_es_energy:           -0.774602
##########           Internal_energy_repulsive:           26.669249

@<TRIPOS>MOLECULE
ZINC001109404798
 49 52 1 0 0
SMALL
USER_CHARGES


@<TRIPOS>ATOM
      1 C1         -8.8710   -0.0360   65.5044 C.3     1  ZINC001109404798   -0.0600
      2 C2         -9.3539    0.4033   64.1461 C.2     1  ZINC001109404798    0.1700
      3 N3        -10.5736    0.3325   63.7035 N.2     1  ZINC001109404798   -0.3900
      4 O4        -10.6360    0.7674   62.5730 O.3     1  ZINC001109404798    0.1000
      5 C5         -9.4252    1.1691   62.1747 C.2     1  ZINC001109404798    0.1900
      6 C6         -9.0732    1.7691   60.8379 C.3     1  ZINC001109404798    0.1600
      7 H7         -8.0143    1.6088   60.6351 H       1  ZINC001109404798    0.1000
      8 C8         -9.3667    3.2706   60.8596 C.3     1  ZINC001109404798   -0.1500
      9 N9         -9.8755    1.1286   59.7872 N.3     1  ZINC001109404798   -0.4800
     10 C10        -9.6240   -0.3562   59.7455 C.3     1  ZINC001109404798    0.0400
     11 H11        -9.9096   -0.9124   60.6384 H       1  ZINC001109404798    0.1100
     12 C12        -8.1078   -0.3917   59.3867 C.3     1  ZINC001109404798   -0.1600
     13 C13        -7.9201    0.8526   58.4847 C.3     1  ZINC001109404798   -0.1600
     14 C14        -9.3480    1.4738   58.4190 C.3     1  ZINC001109404798    0.0400
     15 H15        -9.3905    2.5279   58.1446 H       1  ZINC001109404798    0.1200
     16 C16       -10.1673    0.5084   57.5104 C.3     1  ZINC001109404798    0.1500
     17 H17       -11.1312    0.9481   57.2542 H       1  ZINC001109404798    0.1000
     18 N18        -9.4144    0.1778   56.2980 N.am    1  ZINC001109404798   -0.7200
     19 C19        -9.6839    0.8166   55.1423 C.2     1  ZINC001109404798    0.5100
     20 O20       -10.5487    1.6662   55.1062 O.2     1  ZINC001109404798   -0.5300
     21 C21        -8.9106    0.4752   53.8946 C.3     1  ZINC001109404798   -0.1300
     22 C22        -7.7346    1.4421   53.7429 C.3     1  ZINC001109404798   -0.0400
     23 C23        -6.9826    1.1237   52.4763 C.2     1  ZINC001109404798   -0.1000
     24 C24        -6.9056   -0.1116   51.9789 C.2     1  ZINC001109404798   -0.2100
     25 S25        -5.9518   -0.0939   50.5012 S.3     1  ZINC001109404798    0.1000
     26 C26        -5.7041    1.6413   50.6463 C.2     1  ZINC001109404798   -0.2100
     27 C27        -6.3246    2.0919   51.7378 C.2     1  ZINC001109404798   -0.1300
     28 C28       -10.3764   -0.7494   58.4385 C.3     1  ZINC001109404798   -0.1100
     29 N29        -8.6027    0.9461   63.1715 N.2     1  ZINC001109404798   -0.4800
     30 H30        -8.9490    0.7959   66.2043 H       1  ZINC001109404798    0.0900
     31 H31        -9.4835   -0.8659   65.8568 H       1  ZINC001109404798    0.0900
     32 H32        -7.8314   -0.3557   65.4344 H       1  ZINC001109404798    0.0900
     33 H33        -8.7714    3.7459   61.6393 H       1  ZINC001109404798    0.0700
     34 H34        -9.1121    3.7045   59.8927 H       1  ZINC001109404798    0.0800
     35 H35       -10.4256    3.4310   61.0625 H       1  ZINC001109404798    0.0800
     36 H36        -7.4984   -0.3088   60.2866 H       1  ZINC001109404798    0.0700
     37 H37        -7.8642   -1.3024   58.8396 H       1  ZINC001109404798    0.0800
     38 H38        -7.2177    1.5524   58.9375 H       1  ZINC001109404798    0.0700
     39 H39        -7.5834    0.5587   57.4905 H       1  ZINC001109404798    0.0800
     40 H40        -8.7220   -0.5009   56.3270 H       1  ZINC001109404798    0.4000
     41 H41        -8.5350   -0.5453   53.9677 H       1  ZINC001109404798    0.0900
     42 H42        -9.5650    0.5602   53.0269 H       1  ZINC001109404798    0.1000
     43 H43        -8.1088    2.4648   53.6960 H       1  ZINC001109404798    0.0800
     44 H44        -7.0665    1.3384   54.5978 H       1  ZINC001109404798    0.0800
     45 H45        -7.3591   -0.9885   52.4168 H       1  ZINC001109404798    0.1600
     46 H46        -5.1400    2.2496   49.9549 H       1  ZINC001109404798    0.1600
     47 H47        -6.3080    3.1322   52.0276 H       1  ZINC001109404798    0.1400
     48 H48        -9.9127   -1.6323   57.9985 H       1  ZINC001109404798    0.0800
     49 H49       -11.4376   -0.9214   58.6184 H       1  ZINC001109404798    0.0900
@<TRIPOS>BOND
     1     1     2    1
     2     1    30    1
     3     1    31    1
     4     1    32    1
     5     2    29    1
     6     2     3    2
     7     3     4    1
     8     4     5    1
     9     5     6    1
    10     5    29    2
    11     6     7    1
    12     6     8    1
    13     6     9    1
    14     8    33    1
    15     8    34    1
    16     8    35    1
    17     9    14    1
    18     9    10    1
    19    10    11    1
    20    10    28    1
    21    10    12    1
    22    12    13    1
    23    12    36    1
    24    12    37    1
    25    13    14    1
    26    13    38    1
    27    13    39    1
    28    14    15    1
    29    14    16    1
    30    16    17    1
    31    16    18    1
    32    16    28    1
    33    18    19   am
    34    18    40    1
    35    19    20    2
    36    19    21    1
    37    21    22    1
    38    21    41    1
    39    21    42    1
    40    22    23    1
    41    22    43    1
    42    22    44    1
    43    23    27    1
    44    23    24    2
    45    24    25    1
    46    24    45    1
    47    25    26    1
    48    26    27    2
    49    26    46    1
    50    27    47    1
    51    28    48    1
    52    28    49    1
@<TRIPOS>SUBSTRUCTURE
     1 ZINC001109404798        1 TEMP              0 ****  ****    0 ROOT


##########                                Name:    ZINC000772422035
##########                DOCK_Rotatable_Bonds:                  10
##########                         Heavy_Atoms:                  25
##########                    Molecular_Weight:             348.399
##########                DOCK_Rotatable_Bonds:                  10
##########                       Formal_Charge:          0.00999987
##########                     HBond_Acceptors:                   7
##########                        HBond_Donors:                   0
##########                         Heavy_Atoms:                  25
##########                          Grid_Score:          -31.704023
##########                     Grid_vdw_energy:          -31.078550
##########                      Grid_es_energy:           -0.625473
##########           Internal_energy_repulsive:           11.749127

@<TRIPOS>MOLECULE
ZINC000772422035
 49 50 1 0 0
SMALL
USER_CHARGES


@<TRIPOS>ATOM
      1 C1        -14.1158   -4.7896   56.9176 C.3     1  ZINC000772422035    0.0300
      2 O2        -12.9418   -4.1947   57.4742 O.3     1  ZINC000772422035   -0.3900
      3 C3        -12.9021   -2.7708   57.3610 C.3     1  ZINC000772422035    0.0600
      4 C4        -11.5960   -2.2477   57.9620 C.3     1  ZINC000772422035    0.0700
      5 O5        -11.3438   -0.9273   57.4772 O.3     1  ZINC000772422035   -0.3000
      6 C6        -10.1152   -0.4059   57.7208 C.ar    1  ZINC000772422035    0.3300
      7 C7         -9.6970    0.7223   57.0273 C.ar    1  ZINC000772422035   -0.1700
      8 C8         -8.4413    1.2445   57.2853 C.ar    1  ZINC000772422035   -0.0200
      9 C9         -7.9502    2.4676   56.5546 C.3     1  ZINC000772422035    0.1100
     10 O10        -7.4151    2.0770   55.2625 O.3     1  ZINC000772422035   -0.3500
     11 C11        -7.2115    3.0554   54.3663 C.2     1  ZINC000772422035    0.4700
     12 O12        -7.5492    4.1873   54.6205 O.2     1  ZINC000772422035   -0.5000
     13 C13        -6.5617    2.7420   53.0433 C.3     1  ZINC000772422035   -0.1100
     14 C14        -5.4280    3.7361   52.7836 C.3     1  ZINC000772422035    0.0000
     15 H15        -5.1025    4.1708   53.7288 H       1  ZINC000772422035    0.1000
     16 C16        -5.9256    4.8464   51.8560 C.3     1  ZINC000772422035   -0.1500
     17 C17        -4.2711    3.0205   52.1351 C.2     1  ZINC000772422035   -0.2000
     18 C18        -2.9577    3.0953   52.4575 C.2     1  ZINC000772422035   -0.0200
     19 C19        -2.3440    3.9252   53.5555 C.3     1  ZINC000772422035   -0.0800
     20 O20        -2.3115    2.2854   51.6070 O.3     1  ZINC000772422035    0.1000
     21 N21        -3.0741    1.7515   50.8353 N.2     1  ZINC000772422035   -0.3600
     22 C22        -4.3062    2.1109   51.0533 C.2     1  ZINC000772422035    0.0300
     23 C23        -5.5269    1.6552   50.2962 C.3     1  ZINC000772422035   -0.0800
     24 C24        -7.6449    0.6162   58.2325 C.ar    1  ZINC000772422035   -0.1900
     25 C25        -8.1255   -0.5025   58.8843 C.ar    1  ZINC000772422035    0.1400
     26 N26        -9.3293   -0.9737   58.6207 N.ar    1  ZINC000772422035   -0.5300
     27 H27       -14.0697   -5.8714   57.0434 H       1  ZINC000772422035    0.0900
     28 H28       -14.9969   -4.4017   57.4286 H       1  ZINC000772422035    0.0400
     29 H29       -14.1764   -4.5496   55.8560 H       1  ZINC000772422035    0.0400
     30 H30       -12.9571   -2.4882   56.3097 H       1  ZINC000772422035    0.0600
     31 H31       -13.7473   -2.3399   57.8977 H       1  ZINC000772422035    0.0700
     32 H32       -11.6792   -2.2259   59.0487 H       1  ZINC000772422035    0.0800
     33 H33       -10.7748   -2.9038   57.6736 H       1  ZINC000772422035    0.0800
     34 H34       -10.3427    1.1858   56.2962 H       1  ZINC000772422035    0.1400
     35 H35        -8.7782    3.1614   56.4102 H       1  ZINC000772422035    0.0900
     36 H36        -7.1685    2.9513   57.1404 H       1  ZINC000772422035    0.0900
     37 H37        -6.1588    1.7295   53.0671 H       1  ZINC000772422035    0.1100
     38 H38        -7.3023    2.8197   52.2473 H       1  ZINC000772422035    0.1100
     39 H39        -6.3677    4.4033   50.9637 H       1  ZINC000772422035    0.0600
     40 H40        -6.6753    5.4441   52.3744 H       1  ZINC000772422035    0.0800
     41 H41        -5.0883    5.4826   51.5692 H       1  ZINC000772422035    0.0600
     42 H42        -2.3966    3.3782   54.4969 H       1  ZINC000772422035    0.0900
     43 H43        -1.3017    4.1335   53.3141 H       1  ZINC000772422035    0.0900
     44 H44        -2.8898    4.8640   53.6496 H       1  ZINC000772422035    0.0900
     45 H45        -5.9796    0.8088   50.8124 H       1  ZINC000772422035    0.0800
     46 H46        -6.2455    2.4728   50.2395 H       1  ZINC000772422035    0.0800
     47 H47        -5.2385    1.3545   49.2889 H       1  ZINC000772422035    0.0800
     48 H48        -6.6599    0.9977   58.4573 H       1  ZINC000772422035    0.1400
     49 H49        -7.5098   -0.9951   59.6223 H       1  ZINC000772422035    0.1700
@<TRIPOS>BOND
     1     1     2    1
     2     1    27    1
     3     1    28    1
     4     1    29    1
     5     2     3    1
     6     3     4    1
     7     3    30    1
     8     3    31    1
     9     4     5    1
    10     4    32    1
    11     4    33    1
    12     5     6    1
    13     6    26   ar
    14     6     7   ar
    15     7     8   ar
    16     7    34    1
    17     8     9    1
    18     8    24   ar
    19     9    10    1
    20     9    35    1
    21     9    36    1
    22    10    11    1
    23    11    12    2
    24    11    13    1
    25    13    14    1
    26    13    37    1
    27    13    38    1
    28    14    15    1
    29    14    16    1
    30    14    17    1
    31    16    39    1
    32    16    40    1
    33    16    41    1
    34    17    22    1
    35    17    18    2
    36    18    19    1
    37    18    20    1
    38    19    42    1
    39    19    43    1
    40    19    44    1
    41    20    21    1
    42    21    22    2
    43    22    23    1
    44    23    45    1
    45    23    46    1
    46    23    47    1
    47    24    25   ar
    48    24    48    1
    49    25    26   ar
    50    25    49    1
@<TRIPOS>SUBSTRUCTURE
     1 ZINC000772422035        1 TEMP              0 ****  ****    0 ROOT


##########                                Name:    ZINC000981048968
##########                DOCK_Rotatable_Bonds:                   7
##########                         Heavy_Atoms:                  25
##########                    Molecular_Weight:             344.414
##########                DOCK_Rotatable_Bonds:                   7
##########                       Formal_Charge:                0.02
##########                     HBond_Acceptors:                   7
##########                        HBond_Donors:                   2
##########                         Heavy_Atoms:                  25
##########                          Grid_Score:          -31.700359
##########                     Grid_vdw_energy:          -31.814886
##########                      Grid_es_energy:            0.114527
##########           Internal_energy_repulsive:            4.351453

@<TRIPOS>MOLECULE
ZINC000981048968
 49 52 1 0 0
SMALL
USER_CHARGES


@<TRIPOS>ATOM
      1 C1          1.6315    1.6452   48.0034 C.3     1  ZINC000981048968   -0.0800
      2 C2          0.7277    2.0687   49.1326 C.2     1  ZINC000981048968   -0.0100
      3 C3         -0.5800    1.7848   49.2306 C.2     1  ZINC000981048968   -0.1600
      4 C4         -1.0337    2.3990   50.4870 C.2     1  ZINC000981048968   -0.2300
      5 C5         -2.3950    2.3719   51.0511 C.2     1  ZINC000981048968    0.5900
      6 O6         -3.2064    1.5633   50.6428 O.2     1  ZINC000981048968   -0.5300
      7 N7         -2.7406    3.2433   52.0195 N.am    1  ZINC000981048968   -0.7300
      8 C8         -4.0943    3.2176   52.5790 C.3     1  ZINC000981048968    0.1500
      9 H9         -4.4578    2.1903   52.6038 H       1  ZINC000981048968    0.0900
     10 C10        -5.0225    4.0661   51.7075 C.3     1  ZINC000981048968   -0.1300
     11 C11        -6.4362    4.0393   52.2918 C.3     1  ZINC000981048968   -0.1200
     12 C12        -6.4117    4.6060   53.7129 C.3     1  ZINC000981048968   -0.1100
     13 C13        -5.4835    3.7575   54.5843 C.3     1  ZINC000981048968    0.1000
     14 H14        -5.8469    2.7302   54.6090 H       1  ZINC000981048968    0.0500
     15 N15        -5.4599    4.3016   55.9486 N.3     1  ZINC000981048968   -0.6800
     16 C16        -5.2240    3.2391   56.9352 C.3     1  ZINC000981048968    0.1500
     17 C17        -6.5425    2.7740   57.4975 C.2     1  ZINC000981048968    0.1800
     18 N18        -7.5737    3.5204   57.7579 N.2     1  ZINC000981048968   -0.3800
     19 O19        -8.4793    2.8457   58.2008 O.3     1  ZINC000981048968    0.0800
     20 C20        -8.1002    1.5659   58.2670 C.2     1  ZINC000981048968    0.2100
     21 C21        -8.9299    0.4084   58.7598 C.3     1  ZINC000981048968   -0.0800
     22 C22        -8.1872   -0.8472   59.2211 C.3     1  ZINC000981048968   -0.1600
     23 C23        -8.8541    0.0686   60.2496 C.3     1  ZINC000981048968   -0.1500
     24 N24        -6.8699    1.5091   57.8167 N.2     1  ZINC000981048968   -0.4600
     25 C25        -4.0697    3.7843   54.0000 C.3     1  ZINC000981048968   -0.1300
     26 C26         0.0689    2.9983   51.0219 C.2     1  ZINC000981048968    0.0200
     27 O27         1.1037    2.7851   50.2034 O.3     1  ZINC000981048968   -0.1700
     28 H28         2.6412    2.0113   48.1894 H       1  ZINC000981048968    0.0800
     29 H29         1.6458    0.5573   47.9379 H       1  ZINC000981048968    0.0900
     30 H30         1.2612    2.0608   47.0662 H       1  ZINC000981048968    0.0900
     31 H31        -1.1774    1.2207   48.5297 H       1  ZINC000981048968    0.1600
     32 H32        -2.0930    3.8874   52.3460 H       1  ZINC000981048968    0.4000
     33 H33        -4.6590    5.0934   51.6828 H       1  ZINC000981048968    0.0700
     34 H34        -5.0400    3.6623   50.6953 H       1  ZINC000981048968    0.0700
     35 H35        -7.0975    4.6437   51.6710 H       1  ZINC000981048968    0.0700
     36 H36        -6.7997    3.0119   52.3167 H       1  ZINC000981048968    0.0600
     37 H37        -6.0482    5.6333   53.6881 H       1  ZINC000981048968    0.0700
     38 H38        -7.4188    4.5868   54.1292 H       1  ZINC000981048968    0.0700
     39 H39        -4.7708    5.0338   56.0340 H       1  ZINC000981048968    0.3500
     40 H40        -4.7187    2.4019   56.4535 H       1  ZINC000981048968    0.1100
     41 H41        -4.6005    3.6243   57.7419 H       1  ZINC000981048968    0.0600
     42 H42        -9.8890    0.2712   58.2604 H       1  ZINC000981048968    0.1500
     43 H43        -8.6576   -1.8107   59.0253 H       1  ZINC000981048968    0.1200
     44 H44        -7.0985   -0.8360   59.1683 H       1  ZINC000981048968    0.1100
     45 H45        -8.2041    0.6822   60.8733 H       1  ZINC000981048968    0.1000
     46 H46        -9.7632   -0.2926   60.7303 H       1  ZINC000981048968    0.1200
     47 H47        -3.4084    3.1799   54.6208 H       1  ZINC000981048968    0.0700
     48 H48        -3.7062    4.8116   53.9752 H       1  ZINC000981048968    0.0800
     49 H49         0.1008    3.5485   51.9507 H       1  ZINC000981048968    0.2100
@<TRIPOS>BOND
     1     1     2    1
     2     1    28    1
     3     1    29    1
     4     1    30    1
     5     2    27    1
     6     2     3    2
     7     3     4    1
     8     3    31    1
     9     4     5    1
    10     4    26    2
    11     5     6    2
    12     5     7   am
    13     7     8    1
    14     7    32    1
    15     8     9    1
    16     8    25    1
    17     8    10    1
    18    10    11    1
    19    10    33    1
    20    10    34    1
    21    11    12    1
    22    11    35    1
    23    11    36    1
    24    12    13    1
    25    12    37    1
    26    12    38    1
    27    13    14    1
    28    13    15    1
    29    13    25    1
    30    15    16    1
    31    15    39    1
    32    16    17    1
    33    16    40    1
    34    16    41    1
    35    17    24    1
    36    17    18    2
    37    18    19    1
    38    19    20    1
    39    20    21    1
    40    20    24    2
    41    21    23    1
    42    21    22    1
    43    21    42    1
    44    22    23    1
    45    22    43    1
    46    22    44    1
    47    23    45    1
    48    23    46    1
    49    25    47    1
    50    25    48    1
    51    26    27    1
    52    26    49    1
@<TRIPOS>SUBSTRUCTURE
     1 ZINC000981048968        1 TEMP              0 ****  ****    0 ROOT


##########                                Name:    ZINC001141221454
##########                DOCK_Rotatable_Bonds:                   7
##########                         Heavy_Atoms:                  27
##########                    Molecular_Weight:             369.439
##########                DOCK_Rotatable_Bonds:                   7
##########                       Formal_Charge:          0.00999935
##########                     HBond_Acceptors:                   6
##########                        HBond_Donors:                   1
##########                         Heavy_Atoms:                  27
##########                          Grid_Score:          -31.690947
##########                     Grid_vdw_energy:          -30.909399
##########                      Grid_es_energy:           -0.781548
##########           Internal_energy_repulsive:           11.550385

@<TRIPOS>MOLECULE
ZINC001141221454
 51 54 1 0 0
SMALL
USER_CHARGES


@<TRIPOS>ATOM
      1 C1         -5.8493    0.2017   50.7172 C.3     1  ZINC001141221454    0.0300
      2 O2         -6.8463   -0.0165   51.7175 O.3     1  ZINC001141221454   -0.3100
      3 C3         -7.0699    0.9958   52.5972 C.ar    1  ZINC001141221454    0.0900
      4 C4         -6.2851    2.1376   52.5559 C.ar    1  ZINC001141221454   -0.1800
      5 C5         -6.5145    3.1658   53.4509 C.ar    1  ZINC001141221454   -0.0900
      6 C6         -7.5255    3.0570   54.3872 C.ar    1  ZINC001141221454   -0.1200
      7 C7         -8.3105    1.9193   54.4321 C.ar    1  ZINC001141221454   -0.0800
      8 C8         -9.4116    1.8040   55.4546 C.3     1  ZINC001141221454    0.0900
      9 N9         -8.8519    1.3224   56.7245 N.3     1  ZINC001141221454   -0.5100
     10 C10        -8.3348    2.4513   57.5408 C.3     1  ZINC001141221454    0.0300
     11 C11        -8.2990    1.8674   58.9771 C.3     1  ZINC001141221454   -0.0700
     12 C12        -9.5571    0.9805   59.0138 C.3     1  ZINC001141221454   -0.1000
     13 C13       -10.6476    1.2012   60.0541 C.3     1  ZINC001141221454   -0.1400
     14 C14        -9.7650   -0.0489   60.1169 C.3     1  ZINC001141221454   -0.1800
     15 H15       -10.2187   -1.0001   59.8389 H       1  ZINC001141221454    0.1300
     16 C16        -8.7309   -0.1168   61.2109 C.2     1  ZINC001141221454    0.5500
     17 O17        -7.6694   -0.6675   61.0087 O.2     1  ZINC001141221454   -0.5300
     18 N18        -8.9855    0.4346   62.4141 N.am    1  ZINC001141221454   -0.7300
     19 C19        -7.9809    0.3670   63.4782 C.3     1  ZINC001141221454    0.1700
     20 C20        -8.6641    0.4401   64.8195 C.ar    1  ZINC001141221454   -0.1600
     21 C21        -8.7838    1.6523   65.4812 C.ar    1  ZINC001141221454   -0.0600
     22 C22        -9.4206    1.6718   66.7129 C.ar    1  ZINC001141221454   -0.1700
     23 C23        -9.9112    0.4908   67.2360 C.ar    1  ZINC001141221454    0.1100
     24 N24        -9.7794   -0.6447   66.5782 N.ar    1  ZINC001141221454   -0.4800
     25 C25        -9.1845   -0.7000   65.4028 C.ar    1  ZINC001141221454    0.1200
     26 C26        -9.8939    0.6698   57.5502 C.3     1  ZINC001141221454    0.0700
     27 C27        -8.0893    0.8900   53.5355 C.ar    1  ZINC001141221454    0.0900
     28 F28        -8.8560   -0.2216   53.5790 F       1  ZINC001141221454   -0.1300
     29 H29        -5.7715   -0.6814   50.0831 H       1  ZINC001141221454    0.1000
     30 H30        -6.1273    1.0624   50.1088 H       1  ZINC001141221454    0.0600
     31 H31        -4.8888    0.3906   51.1967 H       1  ZINC001141221454    0.0600
     32 H32        -5.4947    2.2239   51.8252 H       1  ZINC001141221454    0.1400
     33 H33        -5.9027    4.0551   53.4188 H       1  ZINC001141221454    0.1300
     34 H34        -7.7024    3.8619   55.0852 H       1  ZINC001141221454    0.1300
     35 H35        -9.8699    2.7811   55.6068 H       1  ZINC001141221454    0.0600
     36 H36       -10.1648    1.1007   55.0995 H       1  ZINC001141221454    0.0900
     37 H37        -7.3335    2.7335   57.2155 H       1  ZINC001141221454    0.0800
     38 H38        -9.0115    3.3043   57.4893 H       1  ZINC001141221454    0.0500
     39 H39        -7.4003    1.2696   59.1290 H       1  ZINC001141221454    0.0900
     40 H40        -8.3652    2.6630   59.7193 H       1  ZINC001141221454    0.0700
     41 H41       -10.4794    1.9744   60.8036 H       1  ZINC001141221454    0.1000
     42 H42       -11.6817    1.0719   59.7347 H       1  ZINC001141221454    0.1100
     43 H43        -9.8340    0.8761   62.5754 H       1  ZINC001141221454    0.4000
     44 H44        -7.4319   -0.5714   63.4007 H       1  ZINC001141221454    0.0800
     45 H45        -7.2882    1.2026   63.3774 H       1  ZINC001141221454    0.0800
     46 H46        -8.3901    2.5599   65.0479 H       1  ZINC001141221454    0.1400
     47 H47        -9.5313    2.5984   67.2565 H       1  ZINC001141221454    0.1400
     48 H48       -10.4081    0.4974   68.1949 H       1  ZINC001141221454    0.1600
     49 H49        -9.0952   -1.6483   64.8938 H       1  ZINC001141221454    0.1600
     50 H50       -10.8750    1.0731   57.2996 H       1  ZINC001141221454    0.0500
     51 H51        -9.8800   -0.4075   57.3850 H       1  ZINC001141221454    0.0900
@<TRIPOS>BOND
     1     1     2    1
     2     1    29    1
     3     1    30    1
     4     1    31    1
     5     2     3    1
     6     3    27   ar
     7     3     4   ar
     8     4     5   ar
     9     4    32    1
    10     5     6   ar
    11     5    33    1
    12     6     7   ar
    13     6    34    1
    14     7     8    1
    15     7    27   ar
    16     8     9    1
    17     8    35    1
    18     8    36    1
    19     9    26    1
    20     9    10    1
    21    10    11    1
    22    10    37    1
    23    10    38    1
    24    11    12    1
    25    11    39    1
    26    11    40    1
    27    12    14    1
    28    12    13    1
    29    12    26    1
    30    13    14    1
    31    13    41    1
    32    13    42    1
    33    14    15    1
    34    14    16    1
    35    16    17    2
    36    16    18   am
    37    18    19    1
    38    18    43    1
    39    19    20    1
    40    19    44    1
    41    19    45    1
    42    20    25   ar
    43    20    21   ar
    44    21    22   ar
    45    21    46    1
    46    22    23   ar
    47    22    47    1
    48    23    24   ar
    49    23    48    1
    50    24    25   ar
    51    25    49    1
    52    26    50    1
    53    26    51    1
    54    27    28    1
@<TRIPOS>SUBSTRUCTURE
     1 ZINC001141221454        1 TEMP              0 ****  ****    0 ROOT


##########                                Name:    ZINC000031496632
##########                DOCK_Rotatable_Bonds:                   8
##########                         Heavy_Atoms:                  30
##########                    Molecular_Weight:             423.539
##########                DOCK_Rotatable_Bonds:                   8
##########                       Formal_Charge:          -0.0100009
##########                     HBond_Acceptors:                   8
##########                        HBond_Donors:                   1
##########                         Heavy_Atoms:                  30
##########                          Grid_Score:          -31.684620
##########                     Grid_vdw_energy:          -30.847198
##########                      Grid_es_energy:           -0.837422
##########           Internal_energy_repulsive:           11.914321

@<TRIPOS>MOLECULE
ZINC000031496632
 55 58 1 0 0
SMALL
USER_CHARGES


@<TRIPOS>ATOM
      1 C1          2.5334    2.0604   51.2237 C.3     1  ZINC000031496632   -0.1600
      2 C2          1.3531    2.9517   51.6155 C.3     1  ZINC000031496632    0.1600
      3 C3          1.7004    4.4136   51.3275 C.3     1  ZINC000031496632   -0.1600
      4 N4          0.1722    2.5680   50.8381 N.pl3   1  ZINC000031496632   -0.3900
      5 N5          0.1938    1.9445   49.5868 N.2     1  ZINC000031496632   -0.2300
      6 C6         -1.0221    1.7395   49.1678 C.2     1  ZINC000031496632    0.0800
      7 C7         -1.9336    2.2496   50.1861 C.ar    1  ZINC000031496632   -0.2100
      8 C8         -3.3267    2.3134   50.3041 C.ar    1  ZINC000031496632    0.0100
      9 C9         -3.8573    2.8864   51.4493 C.ar    1  ZINC000031496632    0.0500
     10 N10        -5.2453    2.9750   51.6180 N.am    1  ZINC000031496632   -0.6600
     11 C11        -5.8502    4.1792   51.6058 C.2     1  ZINC000031496632    0.5500
     12 O12        -5.1911    5.1893   51.4484 O.2     1  ZINC000031496632   -0.4900
     13 C13        -7.3102    4.2724   51.7833 C.ar    1  ZINC000031496632   -0.1300
     14 C14        -8.1442    4.4346   50.6742 C.ar    1  ZINC000031496632   -0.0600
     15 C15        -9.5084    4.5212   50.8468 C.ar    1  ZINC000031496632   -0.1400
     16 C16       -10.0601    4.4486   52.1163 C.ar    1  ZINC000031496632   -0.0600
     17 C17        -9.2507    4.2891   53.2220 C.ar    1  ZINC000031496632   -0.1500
     18 C18        -7.8727    4.1930   53.0680 C.ar    1  ZINC000031496632   -0.0600
     19 S19        -6.8358    3.9886   54.4780 S.3     1  ZINC000031496632    0.0900
     20 C20        -7.0663    2.2404   54.9038 C.3     1  ZINC000031496632   -0.2000
     21 C21        -8.5157    1.9902   55.2319 C.2     1  ZINC000031496632    0.5500
     22 O22        -9.0141    2.5067   56.2094 O.2     1  ZINC000031496632   -0.5200
     23 N23        -9.2580    1.1921   54.4390 N.am    1  ZINC000031496632   -0.6200
     24 C24       -10.6789    0.8704   54.6363 C.3     1  ZINC000031496632    0.1000
     25 C25       -11.0922   -0.0931   53.5039 C.3     1  ZINC000031496632   -0.1300
     26 C26        -9.7385   -0.7066   53.0585 C.3     1  ZINC000031496632   -0.1300
     27 C27        -8.7811    0.5023   53.2264 C.3     1  ZINC000031496632    0.1000
     28 C28        -2.9965    3.3732   52.4316 C.ar    1  ZINC000031496632    0.1600
     29 N29        -1.6907    3.3017   52.2969 N.ar    1  ZINC000031496632   -0.4900
     30 C30        -1.1284    2.7580   51.2248 C.ar    1  ZINC000031496632    0.3000
     31 H31         3.4121    2.3459   51.8020 H       1  ZINC000031496632    0.0800
     32 H32         2.2860    1.0189   51.4289 H       1  ZINC000031496632    0.0600
     33 H33         2.7429    2.1814   50.1609 H       1  ZINC000031496632    0.0700
     34 H34         1.1437    2.8307   52.6784 H       1  ZINC000031496632    0.1100
     35 H35         2.5791    4.6991   51.9058 H       1  ZINC000031496632    0.0800
     36 H36         1.9100    4.5347   50.2646 H       1  ZINC000031496632    0.0700
     37 H37         0.8597    5.0486   51.6066 H       1  ZINC000031496632    0.0600
     38 H38        -1.3048    1.2756   48.2342 H       1  ZINC000031496632    0.2000
     39 H39        -3.9691    1.9282   49.5260 H       1  ZINC000031496632    0.1500
     40 H40        -5.7710    2.1695   51.7436 H       1  ZINC000031496632    0.4100
     41 H41        -7.7201    4.4925   49.6827 H       1  ZINC000031496632    0.1300
     42 H42       -10.1515    4.6465   49.9882 H       1  ZINC000031496632    0.1300
     43 H43       -11.1307    4.5179   52.2407 H       1  ZINC000031496632    0.1300
     44 H44        -9.6886    4.2341   54.2077 H       1  ZINC000031496632    0.1300
     45 H45        -6.7727    1.6187   54.0580 H       1  ZINC000031496632    0.1100
     46 H46        -6.4501    1.9927   55.7681 H       1  ZINC000031496632    0.1100
     47 H47       -10.8186    0.3875   55.6035 H       1  ZINC000031496632    0.0700
     48 H48       -11.2758    1.7810   54.5847 H       1  ZINC000031496632    0.0700
     49 H49       -11.7609   -0.8669   53.8808 H       1  ZINC000031496632    0.0900
     50 H50       -11.5567    0.4534   52.6831 H       1  ZINC000031496632    0.0800
     51 H51        -9.4500   -1.5313   53.7102 H       1  ZINC000031496632    0.0800
     52 H52        -9.7793   -1.0289   52.0179 H       1  ZINC000031496632    0.0900
     53 H53        -8.8448    1.1600   52.3596 H       1  ZINC000031496632    0.0700
     54 H54        -7.7567    0.1581   53.3681 H       1  ZINC000031496632    0.0800
     55 H55        -3.4116    3.8193   53.3232 H       1  ZINC000031496632    0.1700
@<TRIPOS>BOND
     1     1     2    1
     2     1    31    1
     3     1    32    1
     4     1    33    1
     5     2     3    1
     6     2     4    1
     7     2    34    1
     8     3    35    1
     9     3    36    1
    10     3    37    1
    11     4    30    1
    12     4     5    1
    13     5     6    2
    14     6     7    1
    15     6    38    1
    16     7    30   ar
    17     7     8   ar
    18     8     9   ar
    19     8    39    1
    20     9    10    1
    21     9    28   ar
    22    10    11   am
    23    10    40    1
    24    11    12    2
    25    11    13    1
    26    13    18   ar
    27    13    14   ar
    28    14    15   ar
    29    14    41    1
    30    15    16   ar
    31    15    42    1
    32    16    17   ar
    33    16    43    1
    34    17    18   ar
    35    17    44    1
    36    18    19    1
    37    19    20    1
    38    20    21    1
    39    20    45    1
    40    20    46    1
    41    21    22    2
    42    21    23   am
    43    23    27    1
    44    23    24    1
    45    24    25    1
    46    24    47    1
    47    24    48    1
    48    25    26    1
    49    25    49    1
    50    25    50    1
    51    26    27    1
    52    26    51    1
    53    26    52    1
    54    27    53    1
    55    27    54    1
    56    28    29   ar
    57    28    55    1
    58    29    30   ar
@<TRIPOS>SUBSTRUCTURE
     1 ZINC000031496632        1 TEMP              0 ****  ****    0 ROOT


##########                                Name:    ZINC000550952205
##########                DOCK_Rotatable_Bonds:                   7
##########                         Heavy_Atoms:                  28
##########                    Molecular_Weight:             407.484
##########                DOCK_Rotatable_Bonds:                   7
##########                       Formal_Charge:        -2.68221e-07
##########                     HBond_Acceptors:                   8
##########                        HBond_Donors:                   2
##########                         Heavy_Atoms:                  28
##########                          Grid_Score:          -31.621931
##########                     Grid_vdw_energy:          -32.458366
##########                      Grid_es_energy:            0.836435
##########           Internal_energy_repulsive:            7.074780

@<TRIPOS>MOLECULE
ZINC000550952205
 51 54 1 0 0
SMALL
USER_CHARGES


@<TRIPOS>ATOM
      1 O1         -0.9457    1.8667   48.7440 O.2     1  ZINC000550952205   -0.5100
      2 C2         -0.8991    2.2053   49.9085 C.2     1  ZINC000550952205    0.5100
      3 N3          0.2833    2.5261   50.4702 N.am    1  ZINC000550952205   -0.7000
      4 C4          1.5131    2.4604   49.6767 C.3     1  ZINC000550952205    0.1200
      5 C5          2.7011    2.1810   50.5994 C.3     1  ZINC000550952205   -0.0900
      6 H6          2.5536    1.2280   51.1078 H       1  ZINC000550952205    0.1000
      7 C7          3.9688    2.1314   49.7904 C.3     1  ZINC000550952205   -0.1300
      8 C8          4.9853    1.1173   50.3490 C.3     1  ZINC000550952205   -0.1200
      9 C9          5.0767    1.1482   51.8866 C.3     1  ZINC000550952205   -0.1300
     10 C10         5.0606    2.5487   52.4364 C.3     1  ZINC000550952205   -0.1500
     11 C11         3.6074    2.9151   52.8013 C.3     1  ZINC000550952205    0.3000
     12 F12         2.9972    1.8069   53.3985 F       1  ZINC000550952205   -0.2000
     13 F13         3.6231    3.9718   53.7180 F       1  ZINC000550952205   -0.2000
     14 C14         2.8242    3.3108   51.6421 C.3     1  ZINC000550952205   -0.1700
     15 C15        -2.1526    2.2723   50.7173 C.2     1  ZINC000550952205    0.5100
     16 O16        -2.1003    2.5627   51.8948 O.2     1  ZINC000550952205   -0.4900
     17 N17        -3.3419    2.0105   50.1399 N.am    1  ZINC000550952205   -0.6400
     18 C18        -4.5153    2.0732   50.8971 C.ar    1  ZINC000550952205    0.1500
     19 C19        -4.9548    3.2954   51.4034 C.ar    1  ZINC000550952205   -0.1200
     20 C20        -6.0953    3.3717   52.1420 C.ar    1  ZINC000550952205   -0.0400
     21 C21        -6.8544    2.2141   52.4092 C.ar    1  ZINC000550952205    0.0800
     22 N22        -7.9968    2.0793   53.1103 N.2     1  ZINC000550952205   -0.4700
     23 C23        -8.5006    0.9082   53.2125 C.2     1  ZINC000550952205    0.1200
     24 C24        -9.7706    0.5941   53.9605 C.3     1  ZINC000550952205   -0.1100
     25 C25       -10.9025   -0.0772   53.1801 C.3     1  ZINC000550952205   -0.1500
     26 C26       -10.0998   -0.8796   54.2061 C.3     1  ZINC000550952205   -0.1500
     27 S27        -7.5555   -0.2541   52.3954 S.3     1  ZINC000550952205    0.1200
     28 C28        -6.4107    0.9884   51.8989 C.ar    1  ZINC000550952205   -0.1700
     29 C29        -5.2453    0.9231   51.1401 C.ar    1  ZINC000550952205   -0.0700
     30 H30         0.3201    2.8005   51.3998 H       1  ZINC000550952205    0.4200
     31 H31         1.4284    1.6605   48.9410 H       1  ZINC000550952205    0.0800
     32 H32         1.6663    3.4103   49.1647 H       1  ZINC000550952205    0.0800
     33 H33         3.7223    1.8553   48.7651 H       1  ZINC000550952205    0.0700
     34 H34         4.4241    3.1217   49.7872 H       1  ZINC000550952205    0.0700
     35 H35         4.6919    0.1157   50.0343 H       1  ZINC000550952205    0.0700
     36 H36         5.9683    1.3399   49.9339 H       1  ZINC000550952205    0.0700
     37 H37         4.2328    0.5969   52.3012 H       1  ZINC000550952205    0.0800
     38 H38         6.0008    0.6589   52.1949 H       1  ZINC000550952205    0.0700
     39 H39         5.6858    2.5995   53.3278 H       1  ZINC000550952205    0.0900
     40 H40         5.4349    3.2421   51.6832 H       1  ZINC000550952205    0.1000
     41 H41         3.3016    4.1694   51.1698 H       1  ZINC000550952205    0.1000
     42 H42         1.8268    3.6014   51.9725 H       1  ZINC000550952205    0.1000
     43 H43        -3.3837    1.7786   49.1990 H       1  ZINC000550952205    0.4300
     44 H44        -4.3841    4.1912   51.2077 H       1  ZINC000550952205    0.1400
     45 H45        -6.4212    4.3267   52.5269 H       1  ZINC000550952205    0.1400
     46 H46       -10.0481    1.3079   54.7362 H       1  ZINC000550952205    0.1300
     47 H47       -11.9249    0.1948   53.4422 H       1  ZINC000550952205    0.1000
     48 H48       -10.7285   -0.2918   52.1257 H       1  ZINC000550952205    0.1100
     49 H49        -9.3978   -1.6222   53.8268 H       1  ZINC000550952205    0.1000
     50 H50       -10.5942   -1.1356   55.1433 H       1  ZINC000550952205    0.1100
     51 H51        -4.9102   -0.0241   50.7441 H       1  ZINC000550952205    0.1400
@<TRIPOS>BOND
     1     1     2    2
     2     2     3   am
     3     2    15    1
     4     3     4    1
     5     3    30    1
     6     4     5    1
     7     4    31    1
     8     4    32    1
     9     5     6    1
    10     5    14    1
    11     5     7    1
    12     7     8    1
    13     7    33    1
    14     7    34    1
    15     8     9    1
    16     8    35    1
    17     8    36    1
    18     9    10    1
    19     9    37    1
    20     9    38    1
    21    10    11    1
    22    10    39    1
    23    10    40    1
    24    11    12    1
    25    11    13    1
    26    11    14    1
    27    14    41    1
    28    14    42    1
    29    15    16    2
    30    15    17   am
    31    17    18    1
    32    17    43    1
    33    18    29   ar
    34    18    19   ar
    35    19    20   ar
    36    19    44    1
    37    20    21   ar
    38    20    45    1
    39    21    28   ar
    40    21    22    1
    41    22    23    2
    42    23    24    1
    43    23    27    1
    44    24    26    1
    45    24    25    1
    46    24    46    1
    47    25    26    1
    48    25    47    1
    49    25    48    1
    50    26    49    1
    51    26    50    1
    52    27    28    1
    53    28    29   ar
    54    29    51    1
@<TRIPOS>SUBSTRUCTURE
     1 ZINC000550952205        1 TEMP              0 ****  ****    0 ROOT


##########                                Name:    ZINC000185180600
##########                DOCK_Rotatable_Bonds:                   7
##########                         Heavy_Atoms:                  26
##########                    Molecular_Weight:             395.953
##########                DOCK_Rotatable_Bonds:                   7
##########                       Formal_Charge:          0.00999977
##########                     HBond_Acceptors:                   7
##########                        HBond_Donors:                   0
##########                         Heavy_Atoms:                  26
##########                          Grid_Score:          -31.610580
##########                     Grid_vdw_energy:          -30.580265
##########                      Grid_es_energy:           -1.030316
##########           Internal_energy_repulsive:           15.027894

@<TRIPOS>MOLECULE
ZINC000185180600
 52 53 1 0 0
SMALL
USER_CHARGES


@<TRIPOS>ATOM
      1 C1        -12.9770   -2.2585   57.9564 C.3     1  ZINC000185180600   -0.1500
      2 C2        -11.6567   -1.5196   57.7286 C.3     1  ZINC000185180600   -0.0900
      3 C3        -10.4909   -2.4172   58.1483 C.3     1  ZINC000185180600   -0.1500
      4 C4        -11.5196   -1.1652   56.2466 C.3     1  ZINC000185180600   -0.1300
      5 C5        -10.7533    0.1514   56.1059 C.3     1  ZINC000185180600    0.1300
      6 H6         -9.9460    0.1820   56.8376 H       1  ZINC000185180600    0.1100
      7 C7        -11.7057    1.3242   56.3479 C.3     1  ZINC000185180600   -0.1600
      8 N8        -10.1925    0.2483   54.7559 N.am    1  ZINC000185180600   -0.6000
      9 C9        -11.0063   -0.1250   53.5962 C.3     1  ZINC000185180600    0.0700
     10 C10        -8.9282    0.6807   54.5807 C.2     1  ZINC000185180600    0.5400
     11 O11        -8.2540    0.9883   55.5408 O.2     1  ZINC000185180600   -0.5300
     12 C12        -8.3520    0.7820   53.1919 C.3     1  ZINC000185180600   -0.5000
     13 S13        -6.7405    1.6118   53.2649 S.o     1  ZINC000185180600    1.3200
     14 O14        -6.9143    2.9441   53.7278 O.2     1  ZINC000185180600   -0.8000
     15 C15        -6.2164    1.6387   51.5284 C.3     1  ZINC000185180600   -0.3900
     16 C16        -4.8708    2.3083   51.4202 C.2     1  ZINC000185180600    0.1000
     17 N17        -3.7674    1.7482   50.9939 N.2     1  ZINC000185180600   -0.2800
     18 N18        -2.7430    2.7024   51.0466 N.pl3   1  ZINC000185180600   -0.3200
     19 C19        -1.4063    2.4997   50.6750 C.ar    1  ZINC000185180600    0.1700
     20 C20        -0.3812    3.0036   51.4640 C.ar    1  ZINC000185180600   -0.1300
     21 C21         0.9347    2.8027   51.0959 C.ar    1  ZINC000185180600   -0.0800
     22 C22         1.2317    2.1000   49.9412 C.ar    1  ZINC000185180600   -0.0500
     23 Cl23        2.8867    1.8490   49.4811 Cl      1  ZINC000185180600   -0.0600
     24 C24         0.2115    1.5966   49.1532 C.ar    1  ZINC000185180600   -0.0800
     25 C25        -1.1057    1.7898   49.5204 C.ar    1  ZINC000185180600   -0.1100
     26 C26        -3.2717    3.8536   51.5195 C.2     1  ZINC000185180600    0.0600
     27 C27        -4.5872    3.6376   51.7522 C.2     1  ZINC000185180600   -0.2500
     28 H28       -13.0747   -2.5111   59.0122 H       1  ZINC000185180600    0.0500
     29 H29       -13.8075   -1.6192   57.6574 H       1  ZINC000185180600    0.0600
     30 H30       -12.9893   -3.1720   57.3617 H       1  ZINC000185180600    0.0500
     31 H31       -11.6443   -0.6062   58.3233 H       1  ZINC000185180600    0.0700
     32 H32       -10.5426   -2.6021   59.2214 H       1  ZINC000185180600    0.0500
     33 H33       -10.5510   -3.3649   57.6131 H       1  ZINC000185180600    0.0500
     34 H34        -9.5486   -1.9243   57.9096 H       1  ZINC000185180600    0.0500
     35 H35       -10.9770   -1.9583   55.7321 H       1  ZINC000185180600    0.0700
     36 H36       -12.5105   -1.0577   55.8055 H       1  ZINC000185180600    0.0800
     37 H37       -12.5129    1.2936   55.6161 H       1  ZINC000185180600    0.0600
     38 H38       -12.1228    1.2521   57.3523 H       1  ZINC000185180600    0.0700
     39 H39       -11.1597    2.2623   56.2476 H       1  ZINC000185180600    0.0600
     40 H40       -11.5487    0.7494   53.2365 H       1  ZINC000185180600    0.0600
     41 H41       -10.3591   -0.5021   52.8044 H       1  ZINC000185180600    0.0700
     42 H42       -11.7165   -0.8997   53.8849 H       1  ZINC000185180600    0.0800
     43 H43        -8.2272   -0.2180   52.7764 H       1  ZINC000185180600    0.1500
     44 H44        -9.0282    1.3567   52.5590 H       1  ZINC000185180600    0.1200
     45 H45        -6.1451    0.6173   51.1545 H       1  ZINC000185180600    0.1400
     46 H46        -6.9461    2.1920   50.9371 H       1  ZINC000185180600    0.1000
     47 H47        -0.6126    3.5527   52.3648 H       1  ZINC000185180600    0.1400
     48 H48         1.7324    3.1946   51.7093 H       1  ZINC000185180600    0.1500
     49 H49         0.4458    1.0489   48.2523 H       1  ZINC000185180600    0.1400
     50 H50        -1.9015    1.3968   48.9050 H       1  ZINC000185180600    0.1500
     51 H51        -2.7405    4.7805   51.6784 H       1  ZINC000185180600    0.1800
     52 H52        -5.2920    4.3613   52.1341 H       1  ZINC000185180600    0.1700
@<TRIPOS>BOND
     1     1     2    1
     2     1    28    1
     3     1    29    1
     4     1    30    1
     5     2     3    1
     6     2     4    1
     7     2    31    1
     8     3    32    1
     9     3    33    1
    10     3    34    1
    11     4     5    1
    12     4    35    1
    13     4    36    1
    14     5     6    1
    15     5     7    1
    16     5     8    1
    17     7    37    1
    18     7    38    1
    19     7    39    1
    20     8     9    1
    21     8    10   am
    22     9    40    1
    23     9    41    1
    24     9    42    1
    25    10    11    2
    26    10    12    1
    27    12    13    1
    28    12    43    1
    29    12    44    1
    30    13    14    2
    31    13    15    1
    32    15    16    1
    33    15    45    1
    34    15    46    1
    35    16    27    1
    36    16    17    2
    37    17    18    1
    38    18    19    1
    39    18    26    1
    40    19    25   ar
    41    19    20   ar
    42    20    21   ar
    43    20    47    1
    44    21    22   ar
    45    21    48    1
    46    22    23    1
    47    22    24   ar
    48    24    25   ar
    49    24    49    1
    50    25    50    1
    51    26    27    2
    52    26    51    1
    53    27    52    1
@<TRIPOS>SUBSTRUCTURE
     1 ZINC000185180600        1 TEMP              0 ****  ****    0 ROOT


##########                                Name:    ZINC000432253027
##########                DOCK_Rotatable_Bonds:                   8
##########                         Heavy_Atoms:                  26
##########                    Molecular_Weight:             401.436
##########                DOCK_Rotatable_Bonds:                   8
##########                       Formal_Charge:         1.19209e-07
##########                     HBond_Acceptors:                  11
##########                        HBond_Donors:                   0
##########                         Heavy_Atoms:                  26
##########                          Grid_Score:          -31.604378
##########                     Grid_vdw_energy:          -30.738701
##########                      Grid_es_energy:           -0.865677
##########           Internal_energy_repulsive:            9.013443

@<TRIPOS>MOLECULE
ZINC000432253027
 40 42 1 0 0
SMALL
USER_CHARGES


@<TRIPOS>ATOM
      1 C1         -5.1468    2.4224   50.9206 C.3     1  ZINC000432253027    0.0300
      2 O2         -4.1765    2.0472   51.9004 O.3     1  ZINC000432253027   -0.3100
      3 C3         -2.8963    2.4461   51.6846 C.ar    1  ZINC000432253027    0.1500
      4 C4         -2.2835    2.1895   50.4691 C.ar    1  ZINC000432253027   -0.2100
      5 C5         -0.9803    2.5956   50.2507 C.ar    1  ZINC000432253027   -0.0600
      6 C6         -0.2796    3.2601   51.2419 C.ar    1  ZINC000432253027   -0.1600
      7 C7         -0.8759    3.5233   52.4580 C.ar    1  ZINC000432253027   -0.0300
      8 C8         -2.1924    3.1236   52.6880 C.ar    1  ZINC000432253027   -0.0600
      9 C9         -2.8368    3.4024   53.9884 C.2     1  ZINC000432253027    0.1200
     10 N10        -3.9752    4.0137   54.1521 N.2     1  ZINC000432253027   -0.4600
     11 C11        -4.3949    4.1728   55.3868 C.2     1  ZINC000432253027    0.0800
     12 C12        -5.6956    4.8631   55.7072 C.3     1  ZINC000432253027   -0.0200
     13 S13        -7.0694    3.7008   55.4788 S.3     1  ZINC000432253027   -0.1700
     14 C14        -6.8677    2.5523   56.8683 C.3     1  ZINC000432253027   -0.0300
     15 C15        -7.9759    1.5314   56.8411 C.2     1  ZINC000432253027    0.2100
     16 N16        -8.6352    1.1199   55.7857 N.2     1  ZINC000432253027   -0.2700
     17 N17        -9.4996    0.2462   56.1722 N.2     1  ZINC000432253027   -0.0500
     18 N18        -9.4089    0.0895   57.4468 N.2     1  ZINC000432253027   -0.0700
     19 N19        -8.4767    0.8608   57.8952 N.pl3   1  ZINC000432253027   -0.3100
     20 C20        -8.0504    0.9896   59.2908 C.3     1  ZINC000432253027    0.0700
     21 C21        -8.2688   -0.3401   60.0155 C.3     1  ZINC000432253027    0.4300
     22 F22        -9.6343   -0.6439   60.0311 F       1  ZINC000432253027   -0.1500
     23 F23        -7.5730   -1.3544   59.3488 F       1  ZINC000432253027   -0.1700
     24 F24        -7.7987   -0.2379   61.3293 F       1  ZINC000432253027   -0.1700
     25 C25        -3.5970    3.6839   56.3413 C.2     1  ZINC000432253027   -0.2500
     26 S26        -2.1925    2.9544   55.5657 S.3     1  ZINC000432253027    0.1600
     27 H27        -6.1252    2.0416   51.2137 H       1  ZINC000432253027    0.1000
     28 H28        -5.1872    3.5092   50.8468 H       1  ZINC000432253027    0.0600
     29 H29        -4.8682    2.0027   49.9540 H       1  ZINC000432253027    0.0600
     30 H30        -2.8245    1.6713   49.6912 H       1  ZINC000432253027    0.1400
     31 H31        -0.5063    2.3927   49.3018 H       1  ZINC000432253027    0.1300
     32 H32         0.7382    3.5739   51.0629 H       1  ZINC000432253027    0.1300
     33 H33        -0.3256    4.0419   53.2291 H       1  ZINC000432253027    0.1400
     34 H34        -5.6791    5.2075   56.7413 H       1  ZINC000432253027    0.1000
     35 H35        -5.8274    5.7166   55.0422 H       1  ZINC000432253027    0.1100
     36 H36        -5.9057    2.0466   56.7850 H       1  ZINC000432253027    0.1100
     37 H37        -6.9069    3.1063   57.8062 H       1  ZINC000432253027    0.1300
     38 H38        -6.9931    1.2526   59.3249 H       1  ZINC000432253027    0.1500
     39 H39        -8.6348    1.7696   59.7788 H       1  ZINC000432253027    0.1600
     40 H40        -3.7828    3.7254   57.4043 H       1  ZINC000432253027    0.1800
@<TRIPOS>BOND
     1     1     2    1
     2     1    27    1
     3     1    28    1
     4     1    29    1
     5     2     3    1
     6     3     8   ar
     7     3     4   ar
     8     4     5   ar
     9     4    30    1
    10     5     6   ar
    11     5    31    1
    12     6     7   ar
    13     6    32    1
    14     7     8   ar
    15     7    33    1
    16     8     9    1
    17     9    26    1
    18     9    10    2
    19    10    11    1
    20    11    12    1
    21    11    25    2
    22    12    13    1
    23    12    34    1
    24    12    35    1
    25    13    14    1
    26    14    15    1
    27    14    36    1
    28    14    37    1
    29    15    19    1
    30    15    16    2
    31    16    17    1
    32    17    18    2
    33    18    19    1
    34    19    20    1
    35    20    21    1
    36    20    38    1
    37    20    39    1
    38    21    22    1
    39    21    23    1
    40    21    24    1
    41    25    26    1
    42    25    40    1
@<TRIPOS>SUBSTRUCTURE
     1 ZINC000432253027        1 TEMP              0 ****  ****    0 ROOT


##########                                Name:    ZINC000190927708
##########                DOCK_Rotatable_Bonds:                  10
##########                         Heavy_Atoms:                  26
##########                    Molecular_Weight:             358.437
##########                DOCK_Rotatable_Bonds:                  10
##########                       Formal_Charge:           0.0499998
##########                     HBond_Acceptors:                   6
##########                        HBond_Donors:                   1
##########                         Heavy_Atoms:                  26
##########                          Grid_Score:          -31.589766
##########                     Grid_vdw_energy:          -30.222521
##########                      Grid_es_energy:           -1.367245
##########           Internal_energy_repulsive:           24.827765

@<TRIPOS>MOLECULE
ZINC000190927708
 52 53 1 0 0
SMALL
USER_CHARGES


@<TRIPOS>ATOM
      1 C1         -8.2155    5.2906   48.8731 C.3     1  ZINC000190927708   -0.1500
      2 C2         -8.5144    4.1981   49.9018 C.3     1  ZINC000190927708   -0.1500
      3 C3         -8.3026    4.7534   51.3116 C.3     1  ZINC000190927708    0.1000
      4 N4         -7.4563    3.8342   52.0765 N.am    1  ZINC000190927708   -0.5900
      5 C5         -6.1559    3.6887   51.7534 C.2     1  ZINC000190927708    0.5300
      6 O6         -5.6868    4.3175   50.8286 O.2     1  ZINC000190927708   -0.5300
      7 C7         -5.2850    2.7445   52.5413 C.3     1  ZINC000190927708   -0.0800
      8 C8         -3.9392    2.6266   51.8733 C.2     1  ZINC000190927708   -0.1700
      9 C9         -2.8718    3.2896   52.3830 C.2     1  ZINC000190927708    0.0000
     10 C10        -1.5782    3.1539   51.7108 C.ar    1  ZINC000190927708   -0.1300
     11 C11        -0.4414    3.8123   52.1900 C.ar    1  ZINC000190927708   -0.0500
     12 C12         0.7515    3.6641   51.5402 C.ar    1  ZINC000190927708   -0.1500
     13 C13         0.8450    2.8659   50.4088 C.ar    1  ZINC000190927708   -0.0600
     14 C14        -0.2626    2.2078   49.9184 C.ar    1  ZINC000190927708   -0.1600
     15 C15        -1.4873    2.3432   50.5633 C.ar    1  ZINC000190927708    0.1900
     16 N16        -2.6111    1.6962   50.0952 N.am    1  ZINC000190927708   -0.6300
     17 C17        -3.7934    1.8220   50.7230 C.2     1  ZINC000190927708    0.5500
     18 O18        -4.7662    1.2355   50.2810 O.2     1  ZINC000190927708   -0.5300
     19 C19        -8.0234    3.0732   53.1925 C.3     1  ZINC000190927708    0.1500
     20 H20        -7.3641    2.2402   53.4364 H       1  ZINC000190927708    0.1400
     21 C21        -9.3996    2.5351   52.7957 C.3     1  ZINC000190927708   -0.1300
     22 C22        -9.5926    1.1391   53.3913 C.3     1  ZINC000190927708   -0.1500
     23 C23        -8.1627    3.9720   54.3941 C.2     1  ZINC000190927708    0.4500
     24 O24        -8.3679    5.1532   54.2443 O.2     1  ZINC000190927708   -0.5000
     25 O25        -8.0591    3.4603   55.6306 O.3     1  ZINC000190927708   -0.3500
     26 C26        -7.0394    2.4484   55.8419 C.3     1  ZINC000190927708    0.0600
     27 C27        -7.0022    2.0632   57.3222 C.3     1  ZINC000190927708   -0.1500
     28 H28        -7.1821    5.6199   48.9826 H       1  ZINC000190927708    0.0600
     29 H29        -8.3663    4.8950   47.8688 H       1  ZINC000190927708    0.0600
     30 H30        -8.8850    6.1353   49.0353 H       1  ZINC000190927708    0.0600
     31 H31        -9.5477    3.8690   49.7924 H       1  ZINC000190927708    0.0800
     32 H32        -7.8448    3.3534   49.7397 H       1  ZINC000190927708    0.0700
     33 H33        -7.8174    5.7275   51.2495 H       1  ZINC000190927708    0.0900
     34 H34        -9.2667    4.8588   51.8092 H       1  ZINC000190927708    0.0900
     35 H35        -5.1559    3.1281   53.5534 H       1  ZINC000190927708    0.1100
     36 H36        -5.7574    1.7630   52.5824 H       1  ZINC000190927708    0.1200
     37 H37        -2.9737    3.9044   53.2650 H       1  ZINC000190927708    0.1400
     38 H38        -0.5059    4.4355   53.0697 H       1  ZINC000190927708    0.1400
     39 H39         1.6293    4.1730   51.9103 H       1  ZINC000190927708    0.1300
     40 H40         1.7954    2.7594   49.9069 H       1  ZINC000190927708    0.1300
     41 H41        -0.1795    1.5890   49.0372 H       1  ZINC000190927708    0.1300
     42 H42        -2.5470    1.1388   49.3039 H       1  ZINC000190927708    0.4200
     43 H43       -10.1737    3.2022   53.1750 H       1  ZINC000190927708    0.0900
     44 H44        -9.4685    2.4793   51.7093 H       1  ZINC000190927708    0.0800
     45 H45       -10.5729    0.7557   53.1085 H       1  ZINC000190927708    0.0600
     46 H46        -8.8184    0.4721   53.0120 H       1  ZINC000190927708    0.0600
     47 H47        -9.5237    1.1949   54.4777 H       1  ZINC000190927708    0.0600
     48 H48        -7.2718    1.5678   55.2431 H       1  ZINC000190927708    0.0700
     49 H49        -6.0681    2.8438   55.5448 H       1  ZINC000190927708    0.0700
     50 H50        -6.7697    2.9438   57.9211 H       1  ZINC000190927708    0.0700
     51 H51        -7.9735    1.6678   57.6193 H       1  ZINC000190927708    0.0700
     52 H52        -6.2367    1.3036   57.4807 H       1  ZINC000190927708    0.0800
@<TRIPOS>BOND
     1     1     2    1
     2     1    28    1
     3     1    29    1
     4     1    30    1
     5     2     3    1
     6     2    31    1
     7     2    32    1
     8     3     4    1
     9     3    33    1
    10     3    34    1
    11     4     5   am
    12     4    19    1
    13     5     6    2
    14     5     7    1
    15     7     8    1
    16     7    35    1
    17     7    36    1
    18     8    17    1
    19     8     9    2
    20     9    10    1
    21     9    37    1
    22    10    15   ar
    23    10    11   ar
    24    11    12   ar
    25    11    38    1
    26    12    13   ar
    27    12    39    1
    28    13    14   ar
    29    13    40    1
    30    14    15   ar
    31    14    41    1
    32    15    16    1
    33    16    17   am
    34    16    42    1
    35    17    18    2
    36    19    20    1
    37    19    21    1
    38    19    23    1
    39    21    22    1
    40    21    43    1
    41    21    44    1
    42    22    45    1
    43    22    46    1
    44    22    47    1
    45    23    24    2
    46    23    25    1
    47    25    26    1
    48    26    27    1
    49    26    48    1
    50    26    49    1
    51    27    50    1
    52    27    51    1
    53    27    52    1
@<TRIPOS>SUBSTRUCTURE
     1 ZINC000190927708        1 TEMP              0 ****  ****    0 ROOT


##########                                Name:    ZINC000919225759
##########                DOCK_Rotatable_Bonds:                   4
##########                         Heavy_Atoms:                  27
##########                    Molecular_Weight:             375.295
##########                DOCK_Rotatable_Bonds:                   4
##########                       Formal_Charge:                0.04
##########                     HBond_Acceptors:                  11
##########                        HBond_Donors:                   0
##########                         Heavy_Atoms:                  27
##########                          Grid_Score:          -31.583696
##########                     Grid_vdw_energy:          -30.351894
##########                      Grid_es_energy:           -1.231803
##########           Internal_energy_repulsive:           10.171787

@<TRIPOS>MOLECULE
ZINC000919225759
 40 41 1 0 0
SMALL
USER_CHARGES


@<TRIPOS>ATOM
      1 C1          0.6428    3.7543   53.3142 C.3     1  ZINC000919225759   -0.1500
      2 C2          0.5073    3.0860   51.9702 C.ar    1  ZINC000919225759    0.0900
      3 C3         -0.7062    3.1384   51.2818 C.ar    1  ZINC000919225759   -0.1200
      4 C4         -1.8614    3.8486   51.8678 C.2     1  ZINC000919225759    0.5200
      5 O5         -1.7376    4.9926   52.2567 O.2     1  ZINC000919225759   -0.4700
      6 O6         -3.0523    3.2273   51.9709 O.3     1  ZINC000919225759   -0.3400
      7 C7         -4.1145    3.9467   52.6510 C.3     1  ZINC000919225759    0.1400
      8 H8         -3.7202    4.4046   53.5582 H       1  ZINC000919225759    0.1100
      9 C9         -4.6650    5.0358   51.7280 C.3     1  ZINC000919225759   -0.1700
     10 C10        -5.2198    2.9879   53.0117 C.ar    1  ZINC000919225759   -0.1000
     11 C11        -6.0109    3.2304   54.1188 C.ar    1  ZINC000919225759   -0.0400
     12 C12        -7.0249    2.3507   54.4498 C.ar    1  ZINC000919225759   -0.1100
     13 C13        -7.2477    1.2293   53.6733 C.ar    1  ZINC000919225759   -0.0500
     14 C14        -6.4570    0.9873   52.5653 C.ar    1  ZINC000919225759   -0.0400
     15 N15        -6.6953   -0.2140   51.7341 N.pl3   1  ZINC000919225759    0.0300
     16 O16        -7.5882   -0.9893   52.0261 O.2     1  ZINC000919225759   -0.1500
     17 O17        -5.9987   -0.4272   50.7580 O.2     1  ZINC000919225759   -0.1500
     18 C18        -5.4460    1.8689   52.2320 C.ar    1  ZINC000919225759   -0.0400
     19 C19        -0.8228    2.5169   50.0368 C.ar    1  ZINC000919225759    0.0500
     20 C20         0.2599    1.8561   49.4954 C.ar    1  ZINC000919225759   -0.0600
     21 N21         0.1383    1.1971   48.1755 N.pl3   1  ZINC000919225759    0.0300
     22 O22        -0.9170    1.2388   47.5689 O.2     1  ZINC000919225759   -0.1300
     23 O23         1.0936    0.6130   47.6961 O.2     1  ZINC000919225759   -0.1300
     24 C24         1.4599    1.8079   50.1830 C.ar    1  ZINC000919225759    0.0400
     25 C25         1.5839    2.4260   51.4146 C.ar    1  ZINC000919225759   -0.0500
     26 N26         2.8714    2.3698   52.1426 N.pl3   1  ZINC000919225759    0.0200
     27 O27         3.5450    1.3555   52.1113 O.2     1  ZINC000919225759   -0.1300
     28 O28         3.2574    3.3379   52.7729 O.2     1  ZINC000919225759   -0.1200
     29 H29         0.8582    4.8134   53.1732 H       1  ZINC000919225759    0.1200
     30 H30        -0.2881    3.6438   53.8703 H       1  ZINC000919225759    0.1200
     31 H31         1.4561    3.2889   53.8709 H       1  ZINC000919225759    0.0900
     32 H32        -5.0593    4.5780   50.8208 H       1  ZINC000919225759    0.0700
     33 H33        -5.4624    5.5759   52.2385 H       1  ZINC000919225759    0.0900
     34 H34        -3.8656    5.7292   51.4671 H       1  ZINC000919225759    0.0700
     35 H35        -5.8366    4.1066   54.7255 H       1  ZINC000919225759    0.1500
     36 H36        -7.6426    2.5398   55.3152 H       1  ZINC000919225759    0.1500
     37 H37        -8.0394    0.5418   53.9323 H       1  ZINC000919225759    0.1600
     38 H38        -4.8283    1.6799   51.3664 H       1  ZINC000919225759    0.1600
     39 H39        -1.7588    2.5533   49.4992 H       1  ZINC000919225759    0.1900
     40 H40         2.3045    1.2888   49.7546 H       1  ZINC000919225759    0.1900
@<TRIPOS>BOND
     1     1     2    1
     2     1    29    1
     3     1    30    1
     4     1    31    1
     5     2    25   ar
     6     2     3   ar
     7     3     4    1
     8     3    19   ar
     9     4     5    2
    10     4     6    1
    11     6     7    1
    12     7     8    1
    13     7     9    1
    14     7    10    1
    15     9    32    1
    16     9    33    1
    17     9    34    1
    18    10    18   ar
    19    10    11   ar
    20    11    12   ar
    21    11    35    1
    22    12    13   ar
    23    12    36    1
    24    13    14   ar
    25    13    37    1
    26    14    15    1
    27    14    18   ar
    28    15    16    2
    29    15    17    2
    30    18    38    1
    31    19    20   ar
    32    19    39    1
    33    20    21    1
    34    20    24   ar
    35    21    22    2
    36    21    23    2
    37    24    25   ar
    38    24    40    1
    39    25    26    1
    40    26    27    2
    41    26    28    2
@<TRIPOS>SUBSTRUCTURE
     1 ZINC000919225759        1 TEMP              0 ****  ****    0 ROOT


##########                                Name:    ZINC001289410668
##########                DOCK_Rotatable_Bonds:                  11
##########                         Heavy_Atoms:                  26
##########                    Molecular_Weight:             362.515
##########                DOCK_Rotatable_Bonds:                  11
##########                       Formal_Charge:          -0.0400008
##########                     HBond_Acceptors:                   6
##########                        HBond_Donors:                   1
##########                         Heavy_Atoms:                  26
##########                          Grid_Score:          -31.572958
##########                     Grid_vdw_energy:          -32.289307
##########                      Grid_es_energy:            0.716349
##########           Internal_energy_repulsive:           19.692265

@<TRIPOS>MOLECULE
ZINC001289410668
 60 61 1 0 0
SMALL
USER_CHARGES


@<TRIPOS>ATOM
      1 C1        -13.2752   -3.5737   57.2128 C.3     1  ZINC001289410668   -0.1500
      2 C2        -13.3429   -2.4769   58.2774 C.3     1  ZINC001289410668   -0.1300
      3 C3        -11.9761   -1.8004   58.4002 C.3     1  ZINC001289410668   -0.1200
      4 C4        -11.8941   -0.6336   57.4139 C.3     1  ZINC001289410668   -0.1200
      5 C5        -10.6767   -0.8180   56.5057 C.3     1  ZINC001289410668   -0.1100
      6 C6        -11.1440   -1.1562   55.0887 C.3     1  ZINC001289410668   -0.1400
      7 C7        -10.5342   -0.1829   54.1130 C.2     1  ZINC001289410668    0.5100
      8 O8        -11.2336    0.3697   53.2905 O.2     1  ZINC001289410668   -0.5300
      9 N9         -9.2117    0.0734   54.1543 N.am    1  ZINC001289410668   -0.7200
     10 C10        -8.6186    1.0181   53.2046 C.3     1  ZINC001289410668    0.1400
     11 H11        -9.2943    1.2061   52.3701 H       1  ZINC001289410668    0.1100
     12 C12        -7.2437    0.5112   52.7025 C.3     1  ZINC001289410668    0.0800
     13 N13        -6.5178    1.7285   52.2968 N.am    1  ZINC001289410668   -0.6200
     14 C14        -5.5097    1.7812   51.4038 C.2     1  ZINC001289410668    0.5100
     15 O15        -5.1278    0.7667   50.8599 O.2     1  ZINC001289410668   -0.5100
     16 C16        -4.8571    3.1007   51.0811 C.3     1  ZINC001289410668    0.0900
     17 N17        -3.4056    2.9204   50.9989 N.pl3   1  ZINC001289410668   -0.4500
     18 C18        -2.7194    2.3076   49.9853 C.2     1  ZINC001289410668   -0.0500
     19 C19        -1.4136    2.3622   50.3103 C.2     1  ZINC001289410668   -0.0200
     20 N20        -1.3055    2.9912   51.4900 N.2     1  ZINC001289410668   -0.4800
     21 C21        -2.4942    3.3329   51.9061 C.2     1  ZINC001289410668    0.2300
     22 C22        -2.8001    4.0591   53.1906 C.3     1  ZINC001289410668   -0.0100
     23 C23        -1.6932    3.7811   54.2097 C.3     1  ZINC001289410668   -0.1400
     24 C24        -2.8783    5.5629   52.9201 C.3     1  ZINC001289410668   -0.1400
     25 C25        -7.0762    2.8758   53.0273 C.3     1  ZINC001289410668    0.1100
     26 C26        -8.2246    2.3425   53.9103 C.3     1  ZINC001289410668   -0.1100
     27 H27        -7.8736    2.1490   54.9240 H       1  ZINC001289410668    0.0900
     28 C28        -9.3977    3.3246   53.9241 C.3     1  ZINC001289410668   -0.1400
     29 H29       -14.2489   -4.0557   57.1253 H       1  ZINC001289410668    0.0500
     30 H30       -13.0003   -3.1332   56.2544 H       1  ZINC001289410668    0.0500
     31 H31       -12.5281   -4.3135   57.5003 H       1  ZINC001289410668    0.0500
     32 H32       -14.0900   -1.7371   57.9899 H       1  ZINC001289410668    0.0600
     33 H33       -13.6177   -2.9174   59.2358 H       1  ZINC001289410668    0.0600
     34 H34       -11.8452   -1.4274   59.4160 H       1  ZINC001289410668    0.0600
     35 H35       -11.1916   -2.5227   58.1745 H       1  ZINC001289410668    0.0600
     36 H36       -12.7992   -0.6065   56.8071 H       1  ZINC001289410668    0.0600
     37 H37       -11.7979    0.3019   57.9649 H       1  ZINC001289410668    0.0600
     38 H38       -10.0950    0.1037   56.4863 H       1  ZINC001289410668    0.0700
     39 H39       -10.0580   -1.6300   56.8878 H       1  ZINC001289410668    0.0700
     40 H40       -10.8312   -2.1691   54.8350 H       1  ZINC001289410668    0.1000
     41 H41       -12.2308   -1.0882   55.0385 H       1  ZINC001289410668    0.1000
     42 H42        -8.6526   -0.3677   54.8128 H       1  ZINC001289410668    0.4000
     43 H43        -6.7109    0.0017   53.5054 H       1  ZINC001289410668    0.0800
     44 H44        -7.3734   -0.1550   51.8495 H       1  ZINC001289410668    0.0800
     45 H45        -5.2324    3.4676   50.1257 H       1  ZINC001289410668    0.1200
     46 H46        -5.0899    3.8222   51.8642 H       1  ZINC001289410668    0.1200
     47 H47        -3.1436    1.8651   49.0962 H       1  ZINC001289410668    0.1700
     48 H48        -0.5966    1.9685   49.7237 H       1  ZINC001289410668    0.1700
     49 H49        -3.7541    3.7110   53.5865 H       1  ZINC001289410668    0.0700
     50 H50        -0.7392    4.1292   53.8138 H       1  ZINC001289410668    0.0700
     51 H51        -1.9144    4.3064   55.1387 H       1  ZINC001289410668    0.0600
     52 H52        -1.6375    2.7098   54.4024 H       1  ZINC001289410668    0.0500
     53 H53        -1.9242    5.9110   52.5242 H       1  ZINC001289410668    0.0700
     54 H54        -3.6669    5.7610   52.1941 H       1  ZINC001289410668    0.0600
     55 H55        -3.0995    6.0883   53.8491 H       1  ZINC001289410668    0.0600
     56 H56        -6.3063    3.3275   53.6526 H       1  ZINC001289410668    0.0800
     57 H57        -7.4628    3.6117   52.3221 H       1  ZINC001289410668    0.0800
     58 H58        -9.7525    3.4811   52.9054 H       1  ZINC001289410668    0.0600
     59 H59       -10.2058    2.9168   54.5315 H       1  ZINC001289410668    0.0600
     60 H60        -9.0708    4.2753   54.3451 H       1  ZINC001289410668    0.0700
@<TRIPOS>BOND
     1     1     2    1
     2     1    29    1
     3     1    30    1
     4     1    31    1
     5     2     3    1
     6     2    32    1
     7     2    33    1
     8     3     4    1
     9     3    34    1
    10     3    35    1
    11     4     5    1
    12     4    36    1
    13     4    37    1
    14     5     6    1
    15     5    38    1
    16     5    39    1
    17     6     7    1
    18     6    40    1
    19     6    41    1
    20     7     8    2
    21     7     9   am
    22     9    10    1
    23     9    42    1
    24    10    11    1
    25    10    26    1
    26    10    12    1
    27    12    13    1
    28    12    43    1
    29    12    44    1
    30    13    14   am
    31    13    25    1
    32    14    15    2
    33    14    16    1
    34    16    17    1
    35    16    45    1
    36    16    46    1
    37    17    21    1
    38    17    18    1
    39    18    19    2
    40    18    47    1
    41    19    20    1
    42    19    48    1
    43    20    21    2
    44    21    22    1
    45    22    23    1
    46    22    24    1
    47    22    49    1
    48    23    50    1
    49    23    51    1
    50    23    52    1
    51    24    53    1
    52    24    54    1
    53    24    55    1
    54    25    26    1
    55    25    56    1
    56    25    57    1
    57    26    27    1
    58    26    28    1
    59    28    58    1
    60    28    59    1
    61    28    60    1
@<TRIPOS>SUBSTRUCTURE
     1 ZINC001289410668        1 TEMP              0 ****  ****    0 ROOT


##########                                Name:    ZINC001328997126
##########                DOCK_Rotatable_Bonds:                   7
##########                         Heavy_Atoms:                  26
##########                    Molecular_Weight:             388.488
##########                DOCK_Rotatable_Bonds:                   7
##########                       Formal_Charge:           0.0299993
##########                     HBond_Acceptors:                  10
##########                        HBond_Donors:                   1
##########                         Heavy_Atoms:                  26
##########                          Grid_Score:          -31.570734
##########                     Grid_vdw_energy:          -27.962769
##########                      Grid_es_energy:           -3.607965
##########           Internal_energy_repulsive:           16.375309

@<TRIPOS>MOLECULE
ZINC001328997126
 54 56 1 0 0
SMALL
USER_CHARGES


@<TRIPOS>ATOM
      1 C1         -5.0201    1.8568   65.8866 C.3     1  ZINC001328997126   -0.1700
      2 C2         -6.1730    1.3508   66.7560 C.3     1  ZINC001328997126    0.1400
      3 N3         -7.2016    0.7512   65.9023 N.am    1  ZINC001328997126   -0.6300
      4 C4         -7.4969    1.1422   64.5154 C.3     1  ZINC001328997126    0.0700
      5 C5         -8.6471    0.2020   64.1061 C.3     1  ZINC001328997126    0.0700
      6 H6         -8.3479   -0.4241   63.2655 H       1  ZINC001328997126    0.1200
      7 C7         -9.8991    1.0079   63.7539 C.3     1  ZINC001328997126    0.0500
      8 N8        -10.0075    1.1312   62.2942 N.3     1  ZINC001328997126   -0.5300
      9 C9        -10.4118   -0.1442   61.6865 C.3     1  ZINC001328997126    0.0500
     10 C10       -10.5904    0.0462   60.1784 C.3     1  ZINC001328997126    0.0600
     11 N11        -9.3304    0.5281   59.5956 N.3     1  ZINC001328997126   -0.5200
     12 C12        -9.4388    0.6515   58.1357 C.3     1  ZINC001328997126    0.0400
     13 C13        -8.1536    1.2103   57.5819 C.2     1  ZINC001328997126    0.5200
     14 O14        -7.1269    0.5704   57.6687 O.2     1  ZINC001328997126   -0.5100
     15 N15        -8.1449    2.4211   56.9902 N.am    1  ZINC001328997126   -0.7300
     16 C16        -6.8950    2.9651   56.4533 C.3     1  ZINC001328997126    0.1600
     17 H17        -6.1843    2.1555   56.2878 H       1  ZINC001328997126    0.1100
     18 C18        -7.1741    3.6882   55.1242 C.3     1  ZINC001328997126   -0.1400
     19 C19        -5.9019    4.5090   54.7899 C.3     1  ZINC001328997126   -0.5800
     20 S20        -5.4496    5.2234   56.4162 S.o2    1  ZINC001328997126    2.4000
     21 O21        -4.0454    5.1136   56.6046 O.2     1  ZINC001328997126   -0.9300
     22 O22        -6.0881    6.4834   56.5710 O.2     1  ZINC001328997126   -0.9300
     23 C23        -6.3012    3.9803   57.4501 C.3     1  ZINC001328997126   -0.6100
     24 C24        -8.9261    1.8035   60.2032 C.3     1  ZINC001328997126    0.0500
     25 C25        -8.7475    1.6131   61.7113 C.3     1  ZINC001328997126    0.0600
     26 O26        -8.8769   -0.6116   65.2927 O.3     1  ZINC001328997126   -0.3100
     27 C27        -8.0230   -0.2469   66.2557 C.2     1  ZINC001328997126    0.6400
     28 O28        -8.0000   -0.7674   67.3534 O.2     1  ZINC001328997126   -0.5200
     29 H29        -4.5907    1.0230   65.3313 H       1  ZINC001328997126    0.0600
     30 H30        -5.3936    2.6050   65.1875 H       1  ZINC001328997126    0.0600
     31 H31        -4.2549    2.3030   66.5217 H       1  ZINC001328997126    0.0700
     32 H32        -5.7995    0.6026   67.4551 H       1  ZINC001328997126    0.0900
     33 H33        -6.6025    2.1846   67.3113 H       1  ZINC001328997126    0.0900
     34 H34        -7.8187    2.1827   64.4712 H       1  ZINC001328997126    0.0900
     35 H35        -6.6265    0.9822   63.8790 H       1  ZINC001328997126    0.0900
     36 H36       -10.7806    0.4977   64.1421 H       1  ZINC001328997126    0.0900
     37 H37        -9.8289    2.0008   64.1982 H       1  ZINC001328997126    0.0600
     38 H38        -9.6425   -0.8944   61.8697 H       1  ZINC001328997126    0.0500
     39 H39       -11.3535   -0.4739   62.1254 H       1  ZINC001328997126    0.0900
     40 H40       -10.8621   -0.9053   59.7214 H       1  ZINC001328997126    0.0800
     41 H41       -11.3786    0.7764   59.9949 H       1  ZINC001328997126    0.0500
     42 H42        -9.6252   -0.3306   57.7010 H       1  ZINC001328997126    0.1100
     43 H43       -10.2627    1.3208   57.8879 H       1  ZINC001328997126    0.0700
     44 H44        -8.9661    2.9324   56.9198 H       1  ZINC001328997126    0.4100
     45 H45        -7.3662    2.9601   54.3362 H       1  ZINC001328997126    0.1100
     46 H46        -8.0299    4.3544   55.2342 H       1  ZINC001328997126    0.0900
     47 H47        -5.1090    3.8597   54.4187 H       1  ZINC001328997126    0.1400
     48 H48        -6.1273    5.2964   54.0707 H       1  ZINC001328997126    0.1400
     49 H49        -7.0944    4.4507   58.0313 H       1  ZINC001328997126    0.1400
     50 H50        -5.5892    3.4857   58.1108 H       1  ZINC001328997126    0.1500
     51 H51        -7.9844    2.1332   59.7643 H       1  ZINC001328997126    0.1000
     52 H52        -9.6954    2.5537   60.0200 H       1  ZINC001328997126    0.0400
     53 H53        -8.4759    2.5646   62.1684 H       1  ZINC001328997126    0.0800
     54 H54        -7.9593    0.8829   61.8948 H       1  ZINC001328997126    0.0500
@<TRIPOS>BOND
     1     1     2    1
     2     1    29    1
     3     1    30    1
     4     1    31    1
     5     2     3    1
     6     2    32    1
     7     2    33    1
     8     3    27   am
     9     3     4    1
    10     4     5    1
    11     4    34    1
    12     4    35    1
    13     5     6    1
    14     5     7    1
    15     5    26    1
    16     7     8    1
    17     7    36    1
    18     7    37    1
    19     8    25    1
    20     8     9    1
    21     9    10    1
    22     9    38    1
    23     9    39    1
    24    10    11    1
    25    10    40    1
    26    10    41    1
    27    11    12    1
    28    11    24    1
    29    12    13    1
    30    12    42    1
    31    12    43    1
    32    13    14    2
    33    13    15   am
    34    15    16    1
    35    15    44    1
    36    16    17    1
    37    16    23    1
    38    16    18    1
    39    18    19    1
    40    18    45    1
    41    18    46    1
    42    19    20    1
    43    19    47    1
    44    19    48    1
    45    20    21    2
    46    20    22    2
    47    20    23    1
    48    23    49    1
    49    23    50    1
    50    24    25    1
    51    24    51    1
    52    24    52    1
    53    25    53    1
    54    25    54    1
    55    26    27    1
    56    27    28    2
@<TRIPOS>SUBSTRUCTURE
     1 ZINC001328997126        1 TEMP              0 ****  ****    0 ROOT


##########                                Name:    ZINC000654382142
##########                DOCK_Rotatable_Bonds:                  14
##########                         Heavy_Atoms:                  24
##########                    Molecular_Weight:             379.401
##########                DOCK_Rotatable_Bonds:                  14
##########                       Formal_Charge:          0.00999933
##########                     HBond_Acceptors:                  12
##########                        HBond_Donors:                   2
##########                         Heavy_Atoms:                  24
##########                          Grid_Score:          -31.567616
##########                     Grid_vdw_energy:          -29.823889
##########                      Grid_es_energy:           -1.743727
##########           Internal_energy_repulsive:           16.193283

@<TRIPOS>MOLECULE
ZINC000654382142
 48 47 1 0 0
SMALL
USER_CHARGES


@<TRIPOS>ATOM
      1 C1         -6.0469    3.8877   56.9052 C.3     1  ZINC000654382142    0.0300
      2 O2         -6.1386    2.5016   56.5695 O.3     1  ZINC000654382142   -0.3700
      3 C3         -6.8718    1.7217   57.5161 C.3     1  ZINC000654382142    0.0400
      4 C4         -8.3180    2.2177   57.5743 C.3     1  ZINC000654382142    0.1400
      5 N5         -9.1842    1.1415   58.0619 N.am    1  ZINC000654382142   -0.6100
      6 C6         -9.5968    1.1133   59.4673 C.3     1  ZINC000654382142    0.0800
      7 C7         -8.4810    0.4977   60.3141 C.3     1  ZINC000654382142    0.0500
      8 H8         -7.5872    1.1175   60.2436 H       1  ZINC000654382142    0.1400
      9 O9         -8.1887   -0.8163   59.8342 O.3     1  ZINC000654382142   -0.5200
     10 C10        -8.9330    0.4186   61.7737 C.3     1  ZINC000654382142    0.4200
     11 F11        -9.3330    1.6872   62.2074 F       1  ZINC000654382142   -0.1800
     12 F12       -10.0071   -0.4712   61.8817 F       1  ZINC000654382142   -0.1700
     13 F13        -7.8723   -0.0323   62.5666 F       1  ZINC000654382142   -0.1800
     14 C14        -9.6014    0.1774   57.2177 C.2     1  ZINC000654382142    0.7100
     15 O15        -9.2577    0.2001   56.0515 O.2     1  ZINC000654382142   -0.5600
     16 N16       -10.3996   -0.8117   57.6659 N.am    1  ZINC000654382142   -0.7500
     17 C17       -10.8545   -1.8588   56.7476 C.3     1  ZINC000654382142    0.1400
     18 C18       -11.8891   -2.7396   57.4509 C.3     1  ZINC000654382142   -0.1600
     19 C19       -13.1749   -1.9399   57.6702 C.3     1  ZINC000654382142    0.1200
     20 N20       -13.8664   -2.4437   58.8595 N.am    1  ZINC000654382142   -1.0000
     21 C21       -13.3763   -2.0939   60.1950 C.3     1  ZINC000654382142    0.0900
     22 S22       -15.2022   -3.4084   58.6941 S.o2    1  ZINC000654382142    2.6100
     23 C23       -16.3886   -2.3859   57.7791 C.3     1  ZINC000654382142   -0.6800
     24 O24       -14.7545   -4.4921   57.8912 O.2     1  ZINC000654382142   -0.9500
     25 O25       -15.6492   -3.6195   60.0264 O.2     1  ZINC000654382142   -0.9500
     26 H26        -5.4757    4.4103   56.1378 H       1  ZINC000654382142    0.0900
     27 H27        -7.0483    4.3138   56.9660 H       1  ZINC000654382142    0.0400
     28 H28        -5.5467    3.9962   57.8675 H       1  ZINC000654382142    0.0400
     29 H29        -6.8587    0.6750   57.2125 H       1  ZINC000654382142    0.0500
     30 H30        -6.4140    1.8202   58.5004 H       1  ZINC000654382142    0.0600
     31 H31        -8.3827    3.0705   58.2500 H       1  ZINC000654382142    0.0900
     32 H32        -8.6391    2.5191   56.5772 H       1  ZINC000654382142    0.1000
     33 H33        -9.7934    2.1295   59.8087 H       1  ZINC000654382142    0.1000
     34 H34       -10.5020    0.5144   59.5683 H       1  ZINC000654382142    0.1000
     35 H35        -7.4581   -1.2501   60.2958 H       1  ZINC000654382142    0.3900
     36 H36       -10.6727   -0.8305   58.5964 H       1  ZINC000654382142    0.3900
     37 H37       -11.3059   -1.3996   55.8681 H       1  ZINC000654382142    0.0700
     38 H38       -10.0044   -2.4693   56.4429 H       1  ZINC000654382142    0.0700
     39 H39       -12.1043   -3.6113   56.8331 H       1  ZINC000654382142    0.0700
     40 H40       -11.4950   -3.0649   58.4136 H       1  ZINC000654382142    0.0800
     41 H41       -12.9287   -0.8875   57.8116 H       1  ZINC000654382142    0.0900
     42 H42       -13.8228   -2.0478   56.8002 H       1  ZINC000654382142    0.1000
     43 H43       -13.8567   -1.1742   60.5290 H       1  ZINC000654382142    0.0600
     44 H44       -13.6107   -2.8997   60.8906 H       1  ZINC000654382142    0.0700
     45 H45       -12.2967   -1.9475   60.1590 H       1  ZINC000654382142    0.0700
     46 H46       -15.9630   -2.1112   56.8139 H       1  ZINC000654382142    0.1300
     47 H47       -17.3091   -2.9486   57.6234 H       1  ZINC000654382142    0.1300
     48 H48       -16.6067   -1.4834   58.3501 H       1  ZINC000654382142    0.1300
@<TRIPOS>BOND
     1     1     2    1
     2     1    26    1
     3     1    27    1
     4     1    28    1
     5     2     3    1
     6     3     4    1
     7     3    29    1
     8     3    30    1
     9     4     5    1
    10     4    31    1
    11     4    32    1
    12     5     6    1
    13     5    14   am
    14     6     7    1
    15     6    33    1
    16     6    34    1
    17     7     8    1
    18     7     9    1
    19     7    10    1
    20     9    35    1
    21    10    11    1
    22    10    12    1
    23    10    13    1
    24    14    15    2
    25    14    16   am
    26    16    17    1
    27    16    36    1
    28    17    18    1
    29    17    37    1
    30    17    38    1
    31    18    19    1
    32    18    39    1
    33    18    40    1
    34    19    20    1
    35    19    41    1
    36    19    42    1
    37    20    21    1
    38    20    22   am
    39    21    43    1
    40    21    44    1
    41    21    45    1
    42    22    23    1
    43    22    24    2
    44    22    25    2
    45    23    46    1
    46    23    47    1
    47    23    48    1
@<TRIPOS>SUBSTRUCTURE
     1 ZINC000654382142        1 TEMP              0 ****  ****    0 ROOT


##########                                Name:    ZINC000457806032
##########                DOCK_Rotatable_Bonds:                   8
##########                         Heavy_Atoms:                  24
##########                    Molecular_Weight:             387.911
##########                DOCK_Rotatable_Bonds:                   8
##########                       Formal_Charge:        -1.49012e-07
##########                     HBond_Acceptors:                   9
##########                        HBond_Donors:                   2
##########                         Heavy_Atoms:                  24
##########                          Grid_Score:          -31.562769
##########                     Grid_vdw_energy:          -31.007013
##########                      Grid_es_energy:           -0.555756
##########           Internal_energy_repulsive:            5.922919

@<TRIPOS>MOLECULE
ZINC000457806032
 42 43 1 0 0
SMALL
USER_CHARGES


@<TRIPOS>ATOM
      1 C1        -10.7339    2.6052   53.4755 C.3     1  ZINC000457806032    0.0800
      2 N2        -10.2987    1.2605   53.0896 N.am    1  ZINC000457806032   -1.0100
      3 C3        -11.2698    0.3003   52.5596 C.3     1  ZINC000457806032    0.0900
      4 S4         -8.7090    0.8262   53.2526 S.o2    1  ZINC000457806032    2.7900
      5 O5         -8.3545    1.0997   54.6012 O.2     1  ZINC000457806032   -0.9700
      6 O6         -8.5817   -0.4595   52.6609 O.2     1  ZINC000457806032   -0.9700
      7 N7         -7.8193    1.8622   52.3158 N.am    1  ZINC000457806032   -1.1300
      8 C8         -6.3619    1.7262   52.2545 C.3     1  ZINC000457806032    0.1100
      9 C9         -5.8598    2.2249   50.8981 C.3     1  ZINC000457806032    0.1100
     10 N10        -4.3950    2.2034   50.8816 N.am    1  ZINC000457806032   -0.7300
     11 C11        -3.7001    3.2290   51.4124 C.2     1  ZINC000457806032    0.5800
     12 O12        -4.2890    4.1717   51.9064 O.2     1  ZINC000457806032   -0.5300
     13 C13        -2.2279    3.2082   51.3943 C.2     1  ZINC000457806032   -0.1500
     14 C14        -1.4647    3.9804   52.2172 C.2     1  ZINC000457806032   -0.2200
     15 S15         0.1938    3.7047   51.9285 S.3     1  ZINC000457806032    0.2400
     16 C16        -0.1613    2.5263   50.6748 C.2     1  ZINC000457806032   -0.1700
     17 C17         0.8533    1.7876   49.8923 C.ar    1  ZINC000457806032   -0.0100
     18 C18         0.5788    1.3977   48.5809 C.ar    1  ZINC000457806032   -0.0900
     19 C19         1.5289    0.7088   47.8558 C.ar    1  ZINC000457806032   -0.1000
     20 C20         2.7528    0.4039   48.4270 C.ar    1  ZINC000457806032   -0.0300
     21 Cl21        3.9434   -0.4636   47.5086 Cl      1  ZINC000457806032   -0.0600
     22 C22         3.0310    0.7886   49.7277 C.ar    1  ZINC000457806032   -0.1000
     23 C23         2.0907    1.4829   50.4605 C.ar    1  ZINC000457806032   -0.1000
     24 C24        -1.4898    2.3911   50.5364 C.2     1  ZINC000457806032   -0.0700
     25 H25       -11.0310    2.6039   54.5242 H       1  ZINC000457806032    0.0600
     26 H26        -9.9134    3.3081   53.3311 H       1  ZINC000457806032    0.0800
     27 H27       -11.5812    2.9039   52.8582 H       1  ZINC000457806032    0.0800
     28 H28       -11.3215    0.3968   51.4751 H       1  ZINC000457806032    0.0600
     29 H29       -10.9594   -0.7117   52.8199 H       1  ZINC000457806032    0.0700
     30 H30       -12.2511    0.5011   52.9894 H       1  ZINC000457806032    0.0700
     31 H31        -8.2632    2.5591   51.8076 H       1  ZINC000457806032    0.4200
     32 H32        -5.9081    2.3175   53.0497 H       1  ZINC000457806032    0.0700
     33 H33        -6.0892    0.6783   52.3801 H       1  ZINC000457806032    0.0900
     34 H34        -6.2415    1.5771   50.1088 H       1  ZINC000457806032    0.0800
     35 H35        -6.2102    3.2437   50.7331 H       1  ZINC000457806032    0.0800
     36 H36        -3.9254    1.4510   50.4888 H       1  ZINC000457806032    0.4000
     37 H37        -1.8553    4.6708   52.9501 H       1  ZINC000457806032    0.1700
     38 H38        -0.3758    1.6344   48.1345 H       1  ZINC000457806032    0.1400
     39 H39         1.3176    0.4066   46.8407 H       1  ZINC000457806032    0.1400
     40 H40         3.9873    0.5480   50.1681 H       1  ZINC000457806032    0.1400
     41 H41         2.3089    1.7828   51.4749 H       1  ZINC000457806032    0.1300
     42 H42        -1.9444    1.7196   49.8230 H       1  ZINC000457806032    0.1600
@<TRIPOS>BOND
     1     1     2    1
     2     1    25    1
     3     1    26    1
     4     1    27    1
     5     2     3    1
     6     2     4   am
     7     3    28    1
     8     3    29    1
     9     3    30    1
    10     4     5    2
    11     4     6    2
    12     4     7   am
    13     7     8    1
    14     7    31    1
    15     8     9    1
    16     8    32    1
    17     8    33    1
    18     9    10    1
    19     9    34    1
    20     9    35    1
    21    10    11   am
    22    10    36    1
    23    11    12    2
    24    11    13    1
    25    13    24    1
    26    13    14    2
    27    14    15    1
    28    14    37    1
    29    15    16    1
    30    16    17    1
    31    16    24    2
    32    17    23   ar
    33    17    18   ar
    34    18    19   ar
    35    18    38    1
    36    19    20   ar
    37    19    39    1
    38    20    21    1
    39    20    22   ar
    40    22    23   ar
    41    22    40    1
    42    23    41    1
    43    24    42    1
@<TRIPOS>SUBSTRUCTURE
     1 ZINC000457806032        1 TEMP              0 ****  ****    0 ROOT


##########                                Name:    ZINC000503413572
##########                DOCK_Rotatable_Bonds:                   7
##########                         Heavy_Atoms:                  26
##########                    Molecular_Weight:             355.375
##########                DOCK_Rotatable_Bonds:                   7
##########                       Formal_Charge:        -1.71363e-07
##########                     HBond_Acceptors:                   9
##########                        HBond_Donors:                   1
##########                         Heavy_Atoms:                  26
##########                          Grid_Score:          -31.547846
##########                     Grid_vdw_energy:          -29.355907
##########                      Grid_es_energy:           -2.191938
##########           Internal_energy_repulsive:            8.441361

@<TRIPOS>MOLECULE
ZINC000503413572
 44 47 1 0 0
SMALL
USER_CHARGES


@<TRIPOS>ATOM
      1 C1         -3.5206    3.6998   53.4184 C.3     1  ZINC000503413572   -0.1200
      2 C2         -3.1043    3.1102   52.0955 C.ar    1  ZINC000503413572   -0.0200
      3 C3         -1.7647    3.0003   51.7790 C.ar    1  ZINC000503413572   -0.1400
      4 C4         -1.3817    2.4581   50.5634 C.ar    1  ZINC000503413572    0.1300
      5 F5         -0.0705    2.3510   50.2556 F       1  ZINC000503413572   -0.1300
      6 C6         -2.3408    2.0252   49.6634 C.ar    1  ZINC000503413572   -0.1400
      7 C7         -3.6817    2.1336   49.9766 C.ar    1  ZINC000503413572   -0.0700
      8 C8         -4.0674    2.6719   51.1964 C.ar    1  ZINC000503413572    0.1000
      9 N9         -5.4287    2.7822   51.5164 N.pl3   1  ZINC000503413572   -0.3100
     10 C10        -6.1380    1.9556   52.3149 C.2     1  ZINC000503413572    0.1100
     11 C11        -7.4161    2.4373   52.3461 C.2     1  ZINC000503413572   -0.1000
     12 C12        -8.5413    1.8487   53.0967 C.2     1  ZINC000503413572    0.6100
     13 O13        -9.5943    2.4503   53.1848 O.2     1  ZINC000503413572   -0.5300
     14 N14        -8.4023    0.6440   53.6848 N.am    1  ZINC000503413572   -0.7200
     15 C15        -9.5203    0.0586   54.4288 C.3     1  ZINC000503413572    0.1100
     16 C16        -9.4160    0.4560   55.9025 C.3     1  ZINC000503413572    0.1000
     17 N17       -10.1251   -0.5275   56.7248 N.pl3   1  ZINC000503413572   -0.4700
     18 C18       -11.2482   -1.2091   56.3932 C.2     1  ZINC000503413572    0.1500
     19 N19       -11.5473   -1.9795   57.4035 N.2     1  ZINC000503413572   -0.2900
     20 N20       -10.6817   -1.8197   58.3411 N.2     1  ZINC000503413572   -0.2900
     21 C21        -9.7877   -0.9444   57.9691 C.2     1  ZINC000503413572    0.2100
     22 C22        -8.6054   -0.4766   58.7779 C.3     1  ZINC000503413572   -0.1000
     23 C23        -8.3728    1.0321   58.8817 C.3     1  ZINC000503413572   -0.1500
     24 C24        -8.8923    0.2531   60.0917 C.3     1  ZINC000503413572   -0.1600
     25 N25        -7.4750    3.5382   51.5772 N.2     1  ZINC000503413572   -0.2000
     26 N26        -6.3140    3.7754   51.0738 N.2     1  ZINC000503413572   -0.0400
     27 H27        -3.6844    2.8978   54.1382 H       1  ZINC000503413572    0.0900
     28 H28        -2.7357    4.3618   53.7843 H       1  ZINC000503413572    0.0800
     29 H29        -4.4429    4.2663   53.2896 H       1  ZINC000503413572    0.0700
     30 H30        -1.0153    3.3378   52.4795 H       1  ZINC000503413572    0.1500
     31 H31        -2.0403    1.6030   48.7159 H       1  ZINC000503413572    0.1500
     32 H32        -4.4296    1.7962   49.2742 H       1  ZINC000503413572    0.1500
     33 H33        -5.7664    1.0817   52.8294 H       1  ZINC000503413572    0.2100
     34 H34        -7.5618    0.1645   53.6155 H       1  ZINC000503413572    0.4100
     35 H35       -10.4613    0.4258   54.0191 H       1  ZINC000503413572    0.0800
     36 H36        -9.4856   -1.0275   54.3420 H       1  ZINC000503413572    0.0800
     37 H37        -8.3670    0.4873   56.1971 H       1  ZINC000503413572    0.1100
     38 H38        -9.8632    1.4397   56.0462 H       1  ZINC000503413572    0.1100
     39 H39       -11.7949   -1.1293   55.4653 H       1  ZINC000503413572    0.2200
     40 H40        -7.7264   -1.1202   58.7412 H       1  ZINC000503413572    0.1200
     41 H41        -7.3408    1.3812   58.9132 H       1  ZINC000503413572    0.1100
     42 H42        -9.0751    1.6863   58.3650 H       1  ZINC000503413572    0.1100
     43 H43        -9.9363    0.3948   60.3712 H       1  ZINC000503413572    0.1000
     44 H44        -8.2020    0.0896   60.9193 H       1  ZINC000503413572    0.1100
@<TRIPOS>BOND
     1     1     2    1
     2     1    27    1
     3     1    28    1
     4     1    29    1
     5     2     8   ar
     6     2     3   ar
     7     3     4   ar
     8     3    30    1
     9     4     5    1
    10     4     6   ar
    11     6     7   ar
    12     6    31    1
    13     7     8   ar
    14     7    32    1
    15     8     9    1
    16     9    26    1
    17     9    10    1
    18    10    11    2
    19    10    33    1
    20    11    12    1
    21    11    25    1
    22    12    13    2
    23    12    14   am
    24    14    15    1
    25    14    34    1
    26    15    16    1
    27    15    35    1
    28    15    36    1
    29    16    17    1
    30    16    37    1
    31    16    38    1
    32    17    21    1
    33    17    18    1
    34    18    19    2
    35    18    39    1
    36    19    20    1
    37    20    21    2
    38    21    22    1
    39    22    24    1
    40    22    23    1
    41    22    40    1
    42    23    24    1
    43    23    41    1
    44    23    42    1
    45    24    43    1
    46    24    44    1
    47    25    26    2
@<TRIPOS>SUBSTRUCTURE
     1 ZINC000503413572        1 TEMP              0 ****  ****    0 ROOT


##########                                Name:    ZINC001456607258
##########                DOCK_Rotatable_Bonds:                   9
##########                         Heavy_Atoms:                  25
##########                    Molecular_Weight:             339.437
##########                DOCK_Rotatable_Bonds:                   9
##########                       Formal_Charge:          -0.0200009
##########                     HBond_Acceptors:                   5
##########                        HBond_Donors:                   2
##########                         Heavy_Atoms:                  25
##########                          Grid_Score:          -31.541706
##########                     Grid_vdw_energy:          -28.572260
##########                      Grid_es_energy:           -2.969447
##########           Internal_energy_repulsive:            9.180243

@<TRIPOS>MOLECULE
ZINC001456607258
 50 52 1 0 0
SMALL
USER_CHARGES


@<TRIPOS>ATOM
      1 C1         -0.7086    2.3407   56.6176 C.3     1  ZINC001456607258   -0.1600
      2 C2         -0.8599    3.5140   55.6473 C.3     1  ZINC001456607258   -0.1100
      3 C3         -2.2121    3.4181   54.9380 C.3     1  ZINC001456607258   -0.1000
      4 H4         -2.4301    2.3746   54.7111 H       1  ZINC001456607258    0.0900
      5 C5         -2.1644    4.2236   53.6380 C.3     1  ZINC001456607258   -0.0700
      6 C6         -2.9539    3.5062   52.5735 C.ar    1  ZINC001456607258   -0.0800
      7 C7         -2.2994    2.7500   51.6192 C.ar    1  ZINC001456607258   -0.1200
      8 C8         -3.0236    2.0921   50.6427 C.ar    1  ZINC001456607258   -0.1200
      9 C9         -4.4023    2.1900   50.6207 C.ar    1  ZINC001456607258   -0.1200
     10 C10        -5.0568    2.9454   51.5755 C.ar    1  ZINC001456607258   -0.1200
     11 C11        -4.3330    3.5999   52.5546 C.ar    1  ZINC001456607258   -0.1200
     12 C12        -3.2896    3.9732   55.8336 C.2     1  ZINC001456607258    0.5200
     13 O13        -3.2751    5.1452   56.1449 O.2     1  ZINC001456607258   -0.5300
     14 N14        -4.2693    3.1671   56.2885 N.am    1  ZINC001456607258   -0.7300
     15 C15        -5.3167    3.7067   57.1591 C.3     1  ZINC001456607258    0.1300
     16 C16        -6.4514    2.6880   57.2834 C.3     1  ZINC001456607258   -0.1400
     17 C17        -7.8348    3.3253   57.5069 C.3     1  ZINC001456607258    0.1100
     18 N18        -8.3391    2.3268   56.5442 N.am    1  ZINC001456607258   -0.6500
     19 C19        -9.5384    1.7548   56.3178 C.2     1  ZINC001456607258    0.6100
     20 O20       -10.4958    2.0577   57.0039 O.2     1  ZINC001456607258   -0.5400
     21 C21        -9.6892    0.7631   55.2396 C.2     1  ZINC001456607258   -0.2300
     22 C22       -10.5188   -0.3243   55.2330 C.2     1  ZINC001456607258    0.0400
     23 N23       -10.3576   -0.9747   54.0651 N.pl3   1  ZINC001456607258   -0.5500
     24 C24        -9.4319   -0.3368   53.2917 C.2     1  ZINC001456607258   -0.0200
     25 C25        -8.9848    0.7456   53.9530 C.2     1  ZINC001456607258   -0.1400
     26 C26        -7.0030    2.2062   55.9294 C.3     1  ZINC001456607258    0.1100
     27 H27         0.2898    2.3573   57.0549 H       1  ZINC001456607258    0.0600
     28 H28        -1.4533    2.4253   57.4091 H       1  ZINC001456607258    0.0600
     29 H29        -0.8543    1.4037   56.0802 H       1  ZINC001456607258    0.0600
     30 H30        -0.8053    4.4519   56.2001 H       1  ZINC001456607258    0.0800
     31 H31        -0.0589    3.4804   54.9088 H       1  ZINC001456607258    0.0700
     32 H32        -2.5947    5.2108   53.8063 H       1  ZINC001456607258    0.0800
     33 H33        -1.1291    4.3289   53.3136 H       1  ZINC001456607258    0.0900
     34 H34        -1.2222    2.6735   51.6363 H       1  ZINC001456607258    0.1200
     35 H35        -2.5121    1.5018   49.8967 H       1  ZINC001456607258    0.1200
     36 H36        -4.9680    1.6766   49.8574 H       1  ZINC001456607258    0.1200
     37 H37        -6.1339    3.0222   51.5582 H       1  ZINC001456607258    0.1200
     38 H38        -4.8443    4.1901   53.3007 H       1  ZINC001456607258    0.1200
     39 H39        -4.2808    2.2297   56.0394 H       1  ZINC001456607258    0.4000
     40 H40        -4.9004    3.9091   58.1459 H       1  ZINC001456607258    0.0700
     41 H41        -5.7039    4.6316   56.7315 H       1  ZINC001456607258    0.0800
     42 H42        -6.2219    1.8788   57.9767 H       1  ZINC001456607258    0.1100
     43 H43        -8.2206    3.1947   58.5180 H       1  ZINC001456607258    0.0800
     44 H44        -7.9074    4.3534   57.1521 H       1  ZINC001456607258    0.0900
     45 H45       -11.1891   -0.6124   56.0294 H       1  ZINC001456607258    0.1700
     46 H46       -10.8315   -1.7817   53.8100 H       1  ZINC001456607258    0.4200
     47 H47        -9.1140   -0.6473   52.3075 H       1  ZINC001456607258    0.1700
     48 H48        -8.2481    1.4562   53.6085 H       1  ZINC001456607258    0.1500
     49 H49        -6.8312    2.9056   55.1111 H       1  ZINC001456607258    0.0900
     50 H50        -6.7246    1.1821   55.6808 H       1  ZINC001456607258    0.0900
@<TRIPOS>BOND
     1     1     2    1
     2     1    27    1
     3     1    28    1
     4     1    29    1
     5     2     3    1
     6     2    30    1
     7     2    31    1
     8     3     4    1
     9     3     5    1
    10     3    12    1
    11     5     6    1
    12     5    32    1
    13     5    33    1
    14     6    11   ar
    15     6     7   ar
    16     7     8   ar
    17     7    34    1
    18     8     9   ar
    19     8    35    1
    20     9    10   ar
    21     9    36    1
    22    10    11   ar
    23    10    37    1
    24    11    38    1
    25    12    13    2
    26    12    14   am
    27    14    15    1
    28    14    39    1
    29    15    16    1
    30    15    40    1
    31    15    41    1
    32    16    26    1
    33    16    17    1
    34    16    42    1
    35    17    18    1
    36    17    43    1
    37    17    44    1
    38    18    19   am
    39    18    26    1
    40    19    20    2
    41    19    21    1
    42    21    25    1
    43    21    22    2
    44    22    23    1
    45    22    45    1
    46    23    24    1
    47    23    46    1
    48    24    25    2
    49    24    47    1
    50    25    48    1
    51    26    49    1
    52    26    50    1
@<TRIPOS>SUBSTRUCTURE
     1 ZINC001456607258        1 TEMP              0 ****  ****    0 ROOT


##########                                Name:    ZINC000989658617
##########                DOCK_Rotatable_Bonds:                   6
##########                         Heavy_Atoms:                  24
##########                    Molecular_Weight:             334.418
##########                DOCK_Rotatable_Bonds:                   6
##########                       Formal_Charge:          -0.0100001
##########                     HBond_Acceptors:                   7
##########                        HBond_Donors:                   2
##########                         Heavy_Atoms:                  24
##########                          Grid_Score:          -31.521776
##########                     Grid_vdw_energy:          -31.150642
##########                      Grid_es_energy:           -0.371134
##########           Internal_energy_repulsive:           10.879744

@<TRIPOS>MOLECULE
ZINC000989658617
 50 52 1 0 0
SMALL
USER_CHARGES


@<TRIPOS>ATOM
      1 C1        -14.9781   -3.0388   59.1367 C.3     1  ZINC000989658617    0.0300
      2 O2        -15.3535   -3.6249   57.8885 O.3     1  ZINC000989658617   -0.3700
      3 C3        -14.9497   -2.8676   56.7460 C.3     1  ZINC000989658617    0.0500
      4 C4        -13.4464   -2.8804   56.6405 C.2     1  ZINC000989658617    0.5300
      5 O5        -12.8161   -3.8213   57.0743 O.2     1  ZINC000989658617   -0.5100
      6 N6        -12.8026   -1.8463   56.0639 N.am    1  ZINC000989658617   -0.6200
      7 C7        -13.4415   -0.6446   55.4973 C.3     1  ZINC000989658617    0.1000
      8 C8        -12.4251   -0.1072   54.4591 C.3     1  ZINC000989658617   -0.1500
      9 C9        -11.0748   -0.3976   55.1659 C.3     1  ZINC000989658617    0.1400
     10 H10       -10.8350    0.3916   55.8786 H       1  ZINC000989658617    0.1100
     11 N11        -9.9983   -0.5512   54.1842 N.am    1  ZINC000989658617   -0.7100
     12 C12        -9.1893    0.4894   53.9028 C.2     1  ZINC000989658617    0.6100
     13 O13        -9.3538    1.5559   54.4626 O.2     1  ZINC000989658617   -0.5200
     14 C14        -8.1029    0.3339   52.9142 C.2     1  ZINC000989658617   -0.0100
     15 N15        -7.7647   -0.7760   52.2804 N.2     1  ZINC000989658617   -0.2600
     16 N16        -6.7727   -0.5509   51.4896 N.pl3   1  ZINC000989658617   -0.3700
     17 C17        -6.4065    0.7391   51.5662 C.2     1  ZINC000989658617    0.0100
     18 C18        -7.2316    1.3381   52.4599 C.2     1  ZINC000989658617   -0.1400
     19 C19        -7.1620    2.7894   52.8476 C.3     1  ZINC000989658617   -0.0400
     20 C20        -5.8023    3.3428   52.4000 C.3     1  ZINC000989658617   -0.0900
     21 H21        -5.0149    2.9197   53.0239 H       1  ZINC000989658617    0.0700
     22 C22        -5.8007    4.8663   52.5403 C.3     1  ZINC000989658617   -0.1500
     23 C23        -5.5528    2.9651   50.9374 C.3     1  ZINC000989658617   -0.1100
     24 C24        -5.3067    1.4563   50.8264 C.3     1  ZINC000989658617   -0.0500
     25 C25       -11.3462   -1.7268   55.9017 C.3     1  ZINC000989658617    0.1300
     26 H26       -10.9746   -2.5618   55.3078 H       1  ZINC000989658617    0.0800
     27 C27       -10.6593   -1.7143   57.2688 C.3     1  ZINC000989658617   -0.1600
     28 H28       -13.8932   -2.9429   59.1813 H       1  ZINC000989658617    0.0500
     29 H29       -15.4340   -2.0528   59.2268 H       1  ZINC000989658617    0.0400
     30 H30       -15.3207   -3.6736   59.9538 H       1  ZINC000989658617    0.0900
     31 H31       -15.3808   -3.3083   55.8471 H       1  ZINC000989658617    0.0800
     32 H32       -15.2979   -1.8399   56.8497 H       1  ZINC000989658617    0.0800
     33 H33       -14.3795   -0.9083   55.0086 H       1  ZINC000989658617    0.0800
     34 H34       -13.6146    0.0967   56.2774 H       1  ZINC000989658617    0.0800
     35 H35       -12.4999   -0.6548   53.5195 H       1  ZINC000989658617    0.0800
     36 H36       -12.5597    0.9623   54.2978 H       1  ZINC000989658617    0.1000
     37 H37        -9.8679   -1.4018   53.7366 H       1  ZINC000989658617    0.4100
     38 H38        -6.3522   -1.2155   50.9220 H       1  ZINC000989658617    0.4500
     39 H39        -7.9632    3.3402   52.3545 H       1  ZINC000989658617    0.0800
     40 H40        -7.2603    2.8861   53.9287 H       1  ZINC000989658617    0.0800
     41 H41        -5.9776    5.1355   53.5816 H       1  ZINC000989658617    0.0600
     42 H42        -4.8349    5.2594   52.2225 H       1  ZINC000989658617    0.0600
     43 H43        -6.5882    5.2895   51.9168 H       1  ZINC000989658617    0.0600
     44 H44        -6.4243    3.2323   50.3399 H       1  ZINC000989658617    0.0700
     45 H45        -4.6806    3.5040   50.5672 H       1  ZINC000989658617    0.0800
     46 H46        -4.3454    1.2070   51.2756 H       1  ZINC000989658617    0.0800
     47 H47        -5.3104    1.1598   49.7775 H       1  ZINC000989658617    0.0800
     48 H48       -11.0486   -0.8880   57.8636 H       1  ZINC000989658617    0.0600
     49 H49       -10.8552   -2.6556   57.7824 H       1  ZINC000989658617    0.0700
     50 H50        -9.5847   -1.5906   57.1344 H       1  ZINC000989658617    0.0700
@<TRIPOS>BOND
     1     1     2    1
     2     1    28    1
     3     1    29    1
     4     1    30    1
     5     2     3    1
     6     3     4    1
     7     3    31    1
     8     3    32    1
     9     4     5    2
    10     4     6   am
    11     6    25    1
    12     6     7    1
    13     7     8    1
    14     7    33    1
    15     7    34    1
    16     8     9    1
    17     8    35    1
    18     8    36    1
    19     9    10    1
    20     9    11    1
    21     9    25    1
    22    11    12   am
    23    11    37    1
    24    12    13    2
    25    12    14    1
    26    14    18    1
    27    14    15    2
    28    15    16    1
    29    16    17    1
    30    16    38    1
    31    17    24    1
    32    17    18    2
    33    18    19    1
    34    19    20    1
    35    19    39    1
    36    19    40    1
    37    20    21    1
    38    20    22    1
    39    20    23    1
    40    22    41    1
    41    22    42    1
    42    22    43    1
    43    23    24    1
    44    23    44    1
    45    23    45    1
    46    24    46    1
    47    24    47    1
    48    25    26    1
    49    25    27    1
    50    27    48    1
    51    27    49    1
    52    27    50    1
@<TRIPOS>SUBSTRUCTURE
     1 ZINC000989658617        1 TEMP              0 ****  ****    0 ROOT


##########                                Name:    ZINC000156038173
##########                DOCK_Rotatable_Bonds:                  10
##########                         Heavy_Atoms:                  27
##########                    Molecular_Weight:             396.357
##########                DOCK_Rotatable_Bonds:                  10
##########                       Formal_Charge:         -0.00999981
##########                     HBond_Acceptors:                  10
##########                        HBond_Donors:                   1
##########                         Heavy_Atoms:                  27
##########                          Grid_Score:          -31.495808
##########                     Grid_vdw_energy:          -30.486723
##########                      Grid_es_energy:           -1.009085
##########           Internal_energy_repulsive:           41.057266

@<TRIPOS>MOLECULE
ZINC000156038173
 48 48 1 0 0
SMALL
USER_CHARGES


@<TRIPOS>ATOM
      1 C1          0.3418    2.4084   56.2794 C.3     1  ZINC000156038173    0.0700
      2 N2         -0.9735    2.4749   56.9209 N.am    1  ZINC000156038173   -0.6300
      3 C3         -1.1100    2.1641   58.3461 C.3     1  ZINC000156038173    0.1500
      4 C4         -0.6779    3.3749   59.1757 C.3     1  ZINC000156038173   -0.1400
      5 C5         -0.5178    2.9648   60.6170 C.2     1  ZINC000156038173    0.4700
      6 O6         -0.4355    3.8072   61.4792 O.2     1  ZINC000156038173   -0.5000
      7 O7         -0.4666    1.6637   60.9429 O.3     1  ZINC000156038173   -0.3500
      8 C8         -0.1350    1.3414   62.3193 C.3     1  ZINC000156038173    0.1200
      9 C9         -0.0564   -0.1778   62.4827 C.3     1  ZINC000156038173   -0.1800
     10 C10         1.2162    1.9633   62.6774 C.3     1  ZINC000156038173   -0.1400
     11 C11        -1.2153    1.8990   63.2481 C.3     1  ZINC000156038173   -0.1800
     12 C12        -2.0581    2.8221   56.2000 C.2     1  ZINC000156038173    0.7100
     13 O13        -3.1495    2.8788   56.7328 O.2     1  ZINC000156038173   -0.5700
     14 N14        -1.9327    3.1065   54.8886 N.am    1  ZINC000156038173   -0.7400
     15 C15        -3.1113    3.4856   54.1054 C.3     1  ZINC000156038173    0.1700
     16 H16        -3.9975    3.0155   54.5318 H       1  ZINC000156038173    0.1500
     17 C17        -2.9362    3.0274   52.6804 C.ar    1  ZINC000156038173   -0.1300
     18 C18        -1.6870    3.0679   52.0901 C.ar    1  ZINC000156038173   -0.0700
     19 C19        -1.5247    2.6479   50.7829 C.ar    1  ZINC000156038173   -0.1000
     20 C20        -2.6111    2.1869   50.0636 C.ar    1  ZINC000156038173   -0.1100
     21 C21        -3.8633    2.1452   50.6518 C.ar    1  ZINC000156038173    0.0700
     22 F22        -4.9258    1.6947   49.9494 F       1  ZINC000156038173   -0.1200
     23 C23        -4.0251    2.5609   51.9646 C.ar    1  ZINC000156038173    0.1000
     24 F24        -5.2464    2.5212   52.5409 F       1  ZINC000156038173   -0.1200
     25 C25        -3.2763    5.0064   54.1355 C.3     1  ZINC000156038173    0.4500
     26 F26        -3.8964    5.3845   55.3312 F       1  ZINC000156038173   -0.1700
     27 F27        -2.0189    5.6137   54.0499 F       1  ZINC000156038173   -0.1600
     28 F28        -4.0645    5.4115   53.0530 F       1  ZINC000156038173   -0.1700
     29 H29         0.5054    1.4039   55.8892 H       1  ZINC000156038173    0.0600
     30 H30         0.3838    3.1273   55.4612 H       1  ZINC000156038173    0.0700
     31 H31         1.1150    2.6445   57.0105 H       1  ZINC000156038173    0.0800
     32 H32        -2.1500    1.9243   58.5676 H       1  ZINC000156038173    0.1000
     33 H33        -0.4795    1.3102   58.5937 H       1  ZINC000156038173    0.0900
     34 H34         0.2717    3.7539   58.7982 H       1  ZINC000156038173    0.1100
     35 H35        -1.4357    4.1550   59.1020 H       1  ZINC000156038173    0.1100
     36 H36         0.7132   -0.5751   61.8209 H       1  ZINC000156038173    0.0600
     37 H37         0.1925   -0.4197   63.5160 H       1  ZINC000156038173    0.0700
     38 H38        -1.0190   -0.6209   62.2276 H       1  ZINC000156038173    0.0800
     39 H39         1.1603    3.0457   62.5610 H       1  ZINC000156038173    0.0700
     40 H40         1.4652    1.7214   63.7107 H       1  ZINC000156038173    0.0800
     41 H41         1.9859    1.5661   62.0156 H       1  ZINC000156038173    0.0700
     42 H42        -2.1779    1.4559   62.9931 H       1  ZINC000156038173    0.0800
     43 H43        -0.9664    1.6571   64.2815 H       1  ZINC000156038173    0.0700
     44 H44        -1.2713    2.9814   63.1317 H       1  ZINC000156038173    0.0600
     45 H45        -1.0622    3.0601   54.4633 H       1  ZINC000156038173    0.4100
     46 H46        -0.8371    3.4281   52.6505 H       1  ZINC000156038173    0.1400
     47 H47        -0.5480    2.6806   50.3232 H       1  ZINC000156038173    0.1500
     48 H48        -2.4830    1.8595   49.0424 H       1  ZINC000156038173    0.1500
@<TRIPOS>BOND
     1     1     2    1
     2     1    29    1
     3     1    30    1
     4     1    31    1
     5     2     3    1
     6     2    12   am
     7     3     4    1
     8     3    32    1
     9     3    33    1
    10     4     5    1
    11     4    34    1
    12     4    35    1
    13     5     6    2
    14     5     7    1
    15     7     8    1
    16     8     9    1
    17     8    10    1
    18     8    11    1
    19     9    36    1
    20     9    37    1
    21     9    38    1
    22    10    39    1
    23    10    40    1
    24    10    41    1
    25    11    42    1
    26    11    43    1
    27    11    44    1
    28    12    13    2
    29    12    14   am
    30    14    15    1
    31    14    45    1
    32    15    16    1
    33    15    17    1
    34    15    25    1
    35    17    23   ar
    36    17    18   ar
    37    18    19   ar
    38    18    46    1
    39    19    20   ar
    40    19    47    1
    41    20    21   ar
    42    20    48    1
    43    21    22    1
    44    21    23   ar
    45    23    24    1
    46    25    26    1
    47    25    27    1
    48    25    28    1
@<TRIPOS>SUBSTRUCTURE
     1 ZINC000156038173        1 TEMP              0 ****  ****    0 ROOT


##########                                Name:    ZINC001120957943
##########                DOCK_Rotatable_Bonds:                   4
##########                         Heavy_Atoms:                  27
##########                    Molecular_Weight:             396.802
##########                DOCK_Rotatable_Bonds:                   4
##########                       Formal_Charge:          -0.0199996
##########                     HBond_Acceptors:                  10
##########                        HBond_Donors:                   0
##########                         Heavy_Atoms:                  27
##########                          Grid_Score:          -31.476351
##########                     Grid_vdw_energy:          -32.124550
##########                      Grid_es_energy:            0.648199
##########           Internal_energy_repulsive:           11.877545

@<TRIPOS>MOLECULE
ZINC001120957943
 43 46 1 0 0
SMALL
USER_CHARGES


@<TRIPOS>ATOM
      1 C1         -3.8040    3.5532   52.2945 C.3     1  ZINC001120957943    0.0900
      2 N2         -3.4316    2.6424   51.2091 N.pl3   1  ZINC001120957943   -0.6000
      3 C3         -4.4612    1.8497   50.5323 C.3     1  ZINC001120957943    0.2200
      4 C4         -5.7212    1.8522   51.3589 C.2     1  ZINC001120957943    0.1600
      5 N5         -6.0308    1.0056   52.3072 N.2     1  ZINC001120957943   -0.2500
      6 N6         -7.1832    1.3064   52.8003 N.2     1  ZINC001120957943   -0.2800
      7 C7         -7.6556    2.3510   52.1909 C.2     1  ZINC001120957943    0.1700
      8 C8         -8.9656    3.0611   52.4225 C.3     1  ZINC001120957943   -0.0300
      9 C9         -9.2394    3.9646   51.2126 C.3     1  ZINC001120957943   -0.1300
     10 C10        -7.9863    4.7882   50.9019 C.3     1  ZINC001120957943   -0.1500
     11 H11        -7.6352    5.2726   51.8131 H       1  ZINC001120957943    0.1300
     12 C12        -8.3227    5.8528   49.8559 C.3     1  ZINC001120957943    0.4600
     13 F13        -8.7743    5.2316   48.6867 F       1  ZINC001120957943   -0.1700
     14 F14        -9.3232    6.6952   50.3528 F       1  ZINC001120957943   -0.1800
     15 F15        -7.1781    6.6054   49.5718 F       1  ZINC001120957943   -0.1800
     16 C16        -6.8881    3.8672   50.3576 C.3     1  ZINC001120957943    0.1100
     17 N17        -6.7387    2.7297   51.2647 N.pl3   1  ZINC001120957943   -0.4700
     18 C18        -2.1042    2.5304   50.8224 C.ar    1  ZINC001120957943    0.3700
     19 C19        -1.0872    2.9879   51.6784 C.ar    1  ZINC001120957943    0.0500
     20 N20         0.1730    2.8899   51.3300 N.ar    1  ZINC001120957943   -0.3900
     21 C21         0.4980    2.3498   50.1487 C.ar    1  ZINC001120957943    0.0400
     22 C22         1.8408    2.2329   49.7521 C.ar    1  ZINC001120957943   -0.0600
     23 C23         2.1430    1.6789   48.5449 C.ar    1  ZINC001120957943   -0.0400
     24 Cl24        3.8038    1.5369   48.0600 Cl      1  ZINC001120957943   -0.0600
     25 C25         1.1368    1.2237   47.6932 C.ar    1  ZINC001120957943   -0.0800
     26 C26        -0.1742    1.3211   48.0450 C.ar    1  ZINC001120957943   -0.0800
     27 C27        -0.5240    1.8875   49.2828 C.ar    1  ZINC001120957943    0.1400
     28 N28        -1.8055    1.9904   49.6560 N.ar    1  ZINC001120957943   -0.4700
     29 H29        -3.7615    3.0220   53.2454 H       1  ZINC001120957943    0.0700
     30 H30        -3.1110    4.3941   52.3169 H       1  ZINC001120957943    0.0800
     31 H31        -4.8166    3.9211   52.1287 H       1  ZINC001120957943    0.0700
     32 H32        -4.6678    2.2824   49.5535 H       1  ZINC001120957943    0.1200
     33 H33        -4.1090    0.8255   50.4098 H       1  ZINC001120957943    0.1000
     34 H34        -9.7675    2.3298   52.5246 H       1  ZINC001120957943    0.1100
     35 H35        -8.9014    3.6663   53.3267 H       1  ZINC001120957943    0.1000
     36 H36        -9.4940    3.3497   50.3494 H       1  ZINC001120957943    0.0900
     37 H37       -10.0684    4.6351   51.4394 H       1  ZINC001120957943    0.1000
     38 H38        -7.1663    3.5137   49.3648 H       1  ZINC001120957943    0.1000
     39 H39        -5.9465    4.4138   50.3028 H       1  ZINC001120957943    0.1100
     40 H40        -1.3464    3.4243   52.6317 H       1  ZINC001120957943    0.1700
     41 H41         2.6302    2.5811   50.4017 H       1  ZINC001120957943    0.1500
     42 H42         1.4017    0.7882   46.7410 H       1  ZINC001120957943    0.1400
     43 H43        -0.9431    0.9648   47.3753 H       1  ZINC001120957943    0.1500
@<TRIPOS>BOND
     1     1     2    1
     2     1    29    1
     3     1    30    1
     4     1    31    1
     5     2     3    1
     6     2    18    1
     7     3     4    1
     8     3    32    1
     9     3    33    1
    10     4    17    1
    11     4     5    2
    12     5     6    1
    13     6     7    2
    14     7    17    1
    15     7     8    1
    16     8     9    1
    17     8    34    1
    18     8    35    1
    19     9    10    1
    20     9    36    1
    21     9    37    1
    22    10    11    1
    23    10    12    1
    24    10    16    1
    25    12    13    1
    26    12    14    1
    27    12    15    1
    28    16    17    1
    29    16    38    1
    30    16    39    1
    31    18    28   ar
    32    18    19   ar
    33    19    20   ar
    34    19    40    1
    35    20    21   ar
    36    21    27   ar
    37    21    22   ar
    38    22    23   ar
    39    22    41    1
    40    23    24    1
    41    23    25   ar
    42    25    26   ar
    43    25    42    1
    44    26    27   ar
    45    26    43    1
    46    27    28   ar
@<TRIPOS>SUBSTRUCTURE
     1 ZINC001120957943        1 TEMP              0 ****  ****    0 ROOT


##########                                Name:    ZINC000458730620
##########                DOCK_Rotatable_Bonds:                   9
##########                         Heavy_Atoms:                  25
##########                    Molecular_Weight:              375.44
##########                DOCK_Rotatable_Bonds:                   9
##########                       Formal_Charge:        -1.86265e-07
##########                     HBond_Acceptors:                   9
##########                        HBond_Donors:                   3
##########                         Heavy_Atoms:                  25
##########                          Grid_Score:          -31.470213
##########                     Grid_vdw_energy:          -28.973131
##########                      Grid_es_energy:           -2.497082
##########           Internal_energy_repulsive:           53.643635

@<TRIPOS>MOLECULE
ZINC000458730620
 48 49 1 0 0
SMALL
USER_CHARGES


@<TRIPOS>ATOM
      1 C1        -12.8831    4.6342   49.1159 C.3     1  ZINC000458730620   -0.1600
      2 C2        -12.1557    3.3083   49.3478 C.3     1  ZINC000458730620    0.2000
      3 C3        -12.8922    2.1871   48.6120 C.3     1  ZINC000458730620   -0.1600
      4 N4        -10.7852    3.4078   48.8396 N.am    1  ZINC000458730620   -0.7400
      5 C5         -9.9193    4.2742   49.4019 C.2     1  ZINC000458730620    0.7100
      6 O6        -10.2760    4.9743   50.3299 O.2     1  ZINC000458730620   -0.5800
      7 N7         -8.6581    4.3646   48.9355 N.am    1  ZINC000458730620   -0.7500
      8 C8         -7.7164    5.3051   49.5478 C.3     1  ZINC000458730620    0.1300
      9 C9         -6.8230    4.5586   50.5406 C.3     1  ZINC000458730620    0.1000
     10 N10        -6.6682    3.1675   50.1080 N.am    1  ZINC000458730620   -1.1100
     11 S11        -5.9304    2.0682   51.1028 S.o2    1  ZINC000458730620    2.7000
     12 O12        -6.6125    2.1328   52.3478 O.2     1  ZINC000458730620   -0.9400
     13 O13        -5.7992    0.8703   50.3498 O.2     1  ZINC000458730620   -0.9400
     14 C14        -4.2944    2.6504   51.4010 C.ar    1  ZINC000458730620   -0.7300
     15 C15        -3.2584    2.2507   50.5783 C.ar    1  ZINC000458730620    0.0400
     16 C16        -1.9745    2.7070   50.8108 C.ar    1  ZINC000458730620   -0.1800
     17 C17        -1.7250    3.5652   51.8682 C.ar    1  ZINC000458730620    0.1900
     18 F18        -0.4701    4.0114   52.0948 F       1  ZINC000458730620   -0.1200
     19 C19        -2.7621    3.9663   52.6929 C.ar    1  ZINC000458730620   -0.2100
     20 C20        -4.0481    3.5129   52.4561 C.ar    1  ZINC000458730620    0.2200
     21 F21        -5.0610    3.9035   53.2602 F       1  ZINC000458730620   -0.1100
     22 C22       -12.1230    2.9997   50.8460 C.3     1  ZINC000458730620   -0.1100
     23 C23       -12.5673    4.1787   51.7275 C.3     1  ZINC000458730620   -0.1400
     24 C24       -13.3025    3.1475   52.5998 C.3     1  ZINC000458730620   -0.1400
     25 C25       -13.3711    2.2554   51.3490 C.3     1  ZINC000458730620   -0.1400
     26 H26       -13.9204    4.5406   49.4375 H       1  ZINC000458730620    0.0600
     27 H27       -12.3945    5.4218   49.6896 H       1  ZINC000458730620    0.0500
     28 H28       -12.8526    4.8848   48.0556 H       1  ZINC000458730620    0.0800
     29 H29       -12.9156    2.4070   47.5447 H       1  ZINC000458730620    0.0800
     30 H30       -12.3741    1.2425   48.7771 H       1  ZINC000458730620    0.0500
     31 H31       -13.9120    2.1131   48.9901 H       1  ZINC000458730620    0.0600
     32 H32       -10.5010    2.8501   48.0987 H       1  ZINC000458730620    0.3900
     33 H33        -8.3739    3.8070   48.1944 H       1  ZINC000458730620    0.4000
     34 H34        -7.0985    5.7574   48.7721 H       1  ZINC000458730620    0.0800
     35 H35        -8.2699    6.0842   50.0719 H       1  ZINC000458730620    0.0800
     36 H36        -5.8447    5.0377   50.5804 H       1  ZINC000458730620    0.0900
     37 H37        -7.2798    4.5828   51.5299 H       1  ZINC000458730620    0.0700
     38 H38        -6.9980    2.8903   49.2390 H       1  ZINC000458730620    0.4300
     39 H39        -3.4520    1.5810   49.7535 H       1  ZINC000458730620    0.1700
     40 H40        -1.1656    2.3937   50.1675 H       1  ZINC000458730620    0.1600
     41 H41        -2.5684    4.6356   53.5181 H       1  ZINC000458730620    0.1600
     42 H42       -11.1852    2.5441   51.1639 H       1  ZINC000458730620    0.1100
     43 H43       -11.7434    4.6757   52.2398 H       1  ZINC000458730620    0.0700
     44 H44       -13.2340    4.8762   51.2204 H       1  ZINC000458730620    0.0800
     45 H45       -12.6872    2.7331   53.3984 H       1  ZINC000458730620    0.0800
     46 H46       -14.2781    3.4866   52.9482 H       1  ZINC000458730620    0.0700
     47 H47       -14.2575    2.4271   50.7383 H       1  ZINC000458730620    0.0800
     48 H48       -13.1962    1.1996   51.5556 H       1  ZINC000458730620    0.0700
@<TRIPOS>BOND
     1     1     2    1
     2     1    26    1
     3     1    27    1
     4     1    28    1
     5     2     3    1
     6     2     4    1
     7     2    22    1
     8     3    29    1
     9     3    30    1
    10     3    31    1
    11     4     5   am
    12     4    32    1
    13     5     6    2
    14     5     7   am
    15     7     8    1
    16     7    33    1
    17     8     9    1
    18     8    34    1
    19     8    35    1
    20     9    10    1
    21     9    36    1
    22     9    37    1
    23    10    11   am
    24    10    38    1
    25    11    12    2
    26    11    13    2
    27    11    14    1
    28    14    20   ar
    29    14    15   ar
    30    15    16   ar
    31    15    39    1
    32    16    17   ar
    33    16    40    1
    34    17    18    1
    35    17    19   ar
    36    19    20   ar
    37    19    41    1
    38    20    21    1
    39    22    25    1
    40    22    23    1
    41    22    42    1
    42    23    24    1
    43    23    43    1
    44    23    44    1
    45    24    25    1
    46    24    45    1
    47    24    46    1
    48    25    47    1
    49    25    48    1
@<TRIPOS>SUBSTRUCTURE
     1 ZINC000458730620        1 TEMP              0 ****  ****    0 ROOT


##########                                Name:    ZINC000432058199
##########                DOCK_Rotatable_Bonds:                   5
##########                         Heavy_Atoms:                  30
##########                    Molecular_Weight:             406.441
##########                DOCK_Rotatable_Bonds:                   5
##########                       Formal_Charge:        -4.02331e-07
##########                     HBond_Acceptors:                   8
##########                        HBond_Donors:                   1
##########                         Heavy_Atoms:                  30
##########                          Grid_Score:          -31.457823
##########                     Grid_vdw_energy:          -31.812466
##########                      Grid_es_energy:            0.354643
##########           Internal_energy_repulsive:           16.665634

@<TRIPOS>MOLECULE
ZINC000432058199
 52 55 1 0 0
SMALL
USER_CHARGES


@<TRIPOS>ATOM
      1 C1        -12.0926   -1.1358   57.8020 C.3     1  ZINC000432058199    0.0300
      2 O2        -11.1488   -1.2702   58.8665 O.3     1  ZINC000432058199   -0.3100
      3 C3         -9.9478   -0.6542   58.7076 C.ar    1  ZINC000432058199    0.1300
      4 C4         -8.9718   -0.7734   59.6873 C.ar    1  ZINC000432058199   -0.1900
      5 C5         -7.7488   -0.1485   59.5297 C.ar    1  ZINC000432058199   -0.0800
      6 C6         -7.4916    0.5976   58.3972 C.ar    1  ZINC000432058199   -0.1100
      7 C7         -8.4660    0.7219   57.4086 C.ar    1  ZINC000432058199    0.0100
      8 C8         -8.1917    1.5232   56.1897 C.2     1  ZINC000432058199    0.2100
      9 N9         -7.0827    2.1571   55.9108 N.2     1  ZINC000432058199   -0.3700
     10 O10        -7.1803    2.7160   54.8388 O.3     1  ZINC000432058199    0.1200
     11 C11        -8.3884    2.4904   54.3133 C.2     1  ZINC000432058199    0.1600
     12 C12        -8.9016    3.0078   52.9942 C.3     1  ZINC000432058199    0.2500
     13 H13        -9.3136    4.0075   53.1316 H       1  ZINC000432058199    0.1500
     14 C14        -9.9940    2.0736   52.4700 C.3     1  ZINC000432058199   -0.1700
     15 N15        -7.8006    3.0617   52.0291 N.am    1  ZINC000432058199   -0.5800
     16 C16        -7.5795    4.0862   51.1976 C.2     1  ZINC000432058199    0.7000
     17 O17        -8.2725    5.0838   51.1555 O.2     1  ZINC000432058199   -0.5100
     18 N18        -6.5044    3.8889   50.4135 N.am    1  ZINC000432058199   -0.7200
     19 C19        -5.9538    2.5718   50.7771 C.3     1  ZINC000432058199    0.1400
     20 H20        -5.9798    1.8960   49.9223 H       1  ZINC000432058199    0.1400
     21 C21        -4.5466    2.7108   51.2983 C.ar    1  ZINC000432058199   -0.1000
     22 C22        -3.4775    2.3178   50.5151 C.ar    1  ZINC000432058199   -0.1000
     23 C23        -2.1867    2.4453   50.9933 C.ar    1  ZINC000432058199   -0.0800
     24 C24        -1.0212    2.0165   50.1397 C.3     1  ZINC000432058199   -0.1200
     25 C25        -1.9651    2.9665   52.2542 C.ar    1  ZINC000432058199   -0.1100
     26 C26        -3.0343    3.3599   53.0372 C.ar    1  ZINC000432058199   -0.0800
     27 C27        -2.7927    3.9277   54.4122 C.3     1  ZINC000432058199   -0.1200
     28 C28        -4.3247    3.2363   52.5575 C.ar    1  ZINC000432058199   -0.1000
     29 C29        -6.8822    2.0878   51.8733 C.2     1  ZINC000432058199    0.5300
     30 O30        -6.8158    1.0401   52.4797 O.2     1  ZINC000432058199   -0.4500
     31 N31        -9.0400    1.7295   55.1571 N.2     1  ZINC000432058199   -0.4500
     32 C32        -9.6957    0.0880   57.5653 C.ar    1  ZINC000432058199   -0.1200
     33 H33       -13.0060   -1.6736   58.0562 H       1  ZINC000432058199    0.1000
     34 H34       -12.3222   -0.0810   57.6510 H       1  ZINC000432058199    0.0600
     35 H35       -11.6697   -1.5502   56.8868 H       1  ZINC000432058199    0.0600
     36 H36        -9.1686   -1.3558   60.5753 H       1  ZINC000432058199    0.1400
     37 H37        -6.9927   -0.2439   60.2950 H       1  ZINC000432058199    0.1400
     38 H38        -6.5354    1.0852   58.2773 H       1  ZINC000432058199    0.1400
     39 H39        -9.5820    1.0738   52.3327 H       1  ZINC000432058199    0.0900
     40 H40       -10.8131    2.0334   53.1881 H       1  ZINC000432058199    0.0900
     41 H41       -10.3651    2.4479   51.5160 H       1  ZINC000432058199    0.0900
     42 H42        -6.1593    4.4953   49.7396 H       1  ZINC000432058199    0.4500
     43 H43        -3.6506    1.9110   49.5298 H       1  ZINC000432058199    0.1200
     44 H44        -0.6853    2.8582   49.5339 H       1  ZINC000432058199    0.0700
     45 H45        -0.2055    1.6815   50.7803 H       1  ZINC000432058199    0.0700
     46 H46        -1.3297    1.1997   49.4873 H       1  ZINC000432058199    0.0700
     47 H47        -0.9567    3.0661   52.6278 H       1  ZINC000432058199    0.1300
     48 H48        -2.6797    5.0096   54.3437 H       1  ZINC000432058199    0.0700
     49 H49        -3.6390    3.6907   55.0569 H       1  ZINC000432058199    0.0700
     50 H50        -1.8846    3.4932   54.8303 H       1  ZINC000432058199    0.0700
     51 H51        -5.1600    3.5436   53.1692 H       1  ZINC000432058199    0.1300
     52 H52       -10.4541    0.1814   56.8020 H       1  ZINC000432058199    0.1400
@<TRIPOS>BOND
     1     1     2    1
     2     1    33    1
     3     1    34    1
     4     1    35    1
     5     2     3    1
     6     3    32   ar
     7     3     4   ar
     8     4     5   ar
     9     4    36    1
    10     5     6   ar
    11     5    37    1
    12     6     7   ar
    13     6    38    1
    14     7     8    1
    15     7    32   ar
    16     8    31    1
    17     8     9    2
    18     9    10    1
    19    10    11    1
    20    11    12    1
    21    11    31    2
    22    12    13    1
    23    12    14    1
    24    12    15    1
    25    14    39    1
    26    14    40    1
    27    14    41    1
    28    15    29   am
    29    15    16   am
    30    16    17    2
    31    16    18   am
    32    18    19    1
    33    18    42    1
    34    19    20    1
    35    19    21    1
    36    19    29    1
    37    21    28   ar
    38    21    22   ar
    39    22    23   ar
    40    22    43    1
    41    23    24    1
    42    23    25   ar
    43    24    44    1
    44    24    45    1
    45    24    46    1
    46    25    26   ar
    47    25    47    1
    48    26    27    1
    49    26    28   ar
    50    27    48    1
    51    27    49    1
    52    27    50    1
    53    28    51    1
    54    29    30    2
    55    32    52    1
@<TRIPOS>SUBSTRUCTURE
     1 ZINC000432058199        1 TEMP              0 ****  ****    0 ROOT


##########                                Name:    ZINC000474368324
##########                DOCK_Rotatable_Bonds:                   9
##########                         Heavy_Atoms:                  27
##########                    Molecular_Weight:             417.332
##########                DOCK_Rotatable_Bonds:                   9
##########                       Formal_Charge:        -1.63913e-07
##########                     HBond_Acceptors:                   8
##########                        HBond_Donors:                   1
##########                         Heavy_Atoms:                  27
##########                          Grid_Score:          -31.431971
##########                     Grid_vdw_energy:          -31.808954
##########                      Grid_es_energy:            0.376984
##########           Internal_energy_repulsive:           23.599077

@<TRIPOS>MOLECULE
ZINC000474368324
 53 54 1 0 0
SMALL
USER_CHARGES


@<TRIPOS>ATOM
      1 C1         -7.6212    1.4539   63.6209 C.3     1  ZINC000474368324   -0.1500
      2 C2         -7.7183   -0.0042   63.1677 C.3     1  ZINC000474368324    0.0600
      3 O3         -8.7811   -0.1365   62.1872 O.3     1  ZINC000474368324   -0.3300
      4 C4         -8.4134   -0.2453   60.9008 C.2     1  ZINC000474368324    0.4700
      5 O5         -7.5140   -0.9901   60.5905 O.2     1  ZINC000474368324   -0.5100
      6 C6         -9.1224    0.5614   59.8437 C.3     1  ZINC000474368324   -0.0400
      7 C7        -10.6254    0.5681   60.1301 C.3     1  ZINC000474368324    0.0600
      8 O8        -11.0900   -0.7761   60.2677 O.3     1  ZINC000474368324   -0.3700
      9 C9        -12.5134   -0.8993   60.2939 C.3     1  ZINC000474368324    0.0300
     10 C10        -8.5944    1.9979   59.8590 C.3     1  ZINC000474368324   -0.1200
     11 C11        -9.3416    2.8235   58.8069 C.3     1  ZINC000474368324    0.1100
     12 N12        -9.2228    2.1508   57.5061 N.am    1  ZINC000474368324   -0.6300
     13 C13        -8.7598    2.8154   56.4290 C.2     1  ZINC000474368324    0.7100
     14 O14        -8.4354    3.9831   56.5282 O.2     1  ZINC000474368324   -0.5800
     15 N15        -8.6561    2.1858   55.2418 N.am    1  ZINC000474368324   -0.7400
     16 C16        -8.1527    2.9082   54.0710 C.3     1  ZINC000474368324    0.2000
     17 H17        -7.4486    3.6756   54.3925 H       1  ZINC000474368324    0.1100
     18 C18        -9.3224    3.5653   53.3355 C.3     1  ZINC000474368324   -0.1600
     19 C19        -7.4563    1.9432   53.1464 C.ar    1  ZINC000474368324   -0.0700
     20 C20        -7.9076    0.6413   53.0391 C.ar    1  ZINC000474368324   -0.1000
     21 C21        -7.2695   -0.2446   52.1907 C.ar    1  ZINC000474368324   -0.0900
     22 C22        -6.1799    0.1707   51.4491 C.ar    1  ZINC000474368324   -0.1000
     23 C23        -5.7268    1.4736   51.5552 C.ar    1  ZINC000474368324   -0.0300
     24 Cl24       -4.3580    1.9957   50.6239 Cl      1  ZINC000474368324   -0.0400
     25 C25        -6.3689    2.3621   52.4008 C.ar    1  ZINC000474368324   -0.0300
     26 Cl26       -5.8021    3.9975   52.5348 Cl      1  ZINC000474368324   -0.0400
     27 C27        -9.6181    0.7395   57.4020 C.3     1  ZINC000474368324    0.1300
     28 C28        -8.8679   -0.0628   58.4698 C.3     1  ZINC000474368324   -0.1200
     29 H29        -6.8234    1.5532   64.3570 H       1  ZINC000474368324    0.0800
     30 H30        -7.4034    2.0878   62.7614 H       1  ZINC000474368324    0.0700
     31 H31        -8.5675    1.7595   64.0673 H       1  ZINC000474368324    0.0700
     32 H32        -6.7720   -0.3097   62.7213 H       1  ZINC000474368324    0.0700
     33 H33        -7.9361   -0.6381   64.0272 H       1  ZINC000474368324    0.0700
     34 H34       -10.8169    1.1150   61.0532 H       1  ZINC000474368324    0.0700
     35 H35       -11.1501    1.0513   59.3059 H       1  ZINC000474368324    0.0600
     36 H36       -12.9117   -0.3336   61.1362 H       1  ZINC000474368324    0.0400
     37 H37       -12.9291   -0.5089   59.3650 H       1  ZINC000474368324    0.0400
     38 H38       -12.7855   -1.9494   60.4005 H       1  ZINC000474368324    0.0900
     39 H39        -8.7549    2.4340   60.8450 H       1  ZINC000474368324    0.1000
     40 H40        -7.5287    1.9961   59.6305 H       1  ZINC000474368324    0.0800
     41 H41       -10.3931    2.9019   59.0831 H       1  ZINC000474368324    0.0800
     42 H42        -8.9027    3.8193   58.7446 H       1  ZINC000474368324    0.0800
     43 H43        -8.9148    1.2543   55.1628 H       1  ZINC000474368324    0.3900
     44 H44       -10.0266    2.7978   53.0139 H       1  ZINC000474368324    0.0600
     45 H45        -9.8262    4.2632   54.0042 H       1  ZINC000474368324    0.0700
     46 H46        -8.9479    4.1028   52.4643 H       1  ZINC000474368324    0.0700
     47 H47        -8.7589    0.3157   53.6185 H       1  ZINC000474368324    0.1300
     48 H48        -7.6228   -1.2619   52.1078 H       1  ZINC000474368324    0.1400
     49 H49        -5.6817   -0.5219   50.7868 H       1  ZINC000474368324    0.1500
     50 H50       -10.6922    0.6480   57.5636 H       1  ZINC000474368324    0.0700
     51 H51        -9.3617    0.3602   56.4127 H       1  ZINC000474368324    0.1100
     52 H52        -7.7996   -0.0451   58.2544 H       1  ZINC000474368324    0.0900
     53 H53        -9.2230   -1.0933   58.4670 H       1  ZINC000474368324    0.0900
@<TRIPOS>BOND
     1     1     2    1
     2     1    29    1
     3     1    30    1
     4     1    31    1
     5     2     3    1
     6     2    32    1
     7     2    33    1
     8     3     4    1
     9     4     5    2
    10     4     6    1
    11     6    28    1
    12     6     7    1
    13     6    10    1
    14     7     8    1
    15     7    34    1
    16     7    35    1
    17     8     9    1
    18     9    36    1
    19     9    37    1
    20     9    38    1
    21    10    11    1
    22    10    39    1
    23    10    40    1
    24    11    12    1
    25    11    41    1
    26    11    42    1
    27    12    13   am
    28    12    27    1
    29    13    14    2
    30    13    15   am
    31    15    16    1
    32    15    43    1
    33    16    17    1
    34    16    18    1
    35    16    19    1
    36    18    44    1
    37    18    45    1
    38    18    46    1
    39    19    25   ar
    40    19    20   ar
    41    20    21   ar
    42    20    47    1
    43    21    22   ar
    44    21    48    1
    45    22    23   ar
    46    22    49    1
    47    23    24    1
    48    23    25   ar
    49    25    26    1
    50    27    28    1
    51    27    50    1
    52    27    51    1
    53    28    52    1
    54    28    53    1
@<TRIPOS>SUBSTRUCTURE
     1 ZINC000474368324        1 TEMP              0 ****  ****    0 ROOT


##########                                Name:    ZINC000426037318
##########                DOCK_Rotatable_Bonds:                   7
##########                         Heavy_Atoms:                  28
##########                    Molecular_Weight:             421.904
##########                DOCK_Rotatable_Bonds:                   7
##########                       Formal_Charge:         -0.00999981
##########                     HBond_Acceptors:                   9
##########                        HBond_Donors:                   1
##########                         Heavy_Atoms:                  28
##########                          Grid_Score:          -31.430315
##########                     Grid_vdw_energy:          -31.500175
##########                      Grid_es_energy:            0.069860
##########           Internal_energy_repulsive:           18.483665

@<TRIPOS>MOLECULE
ZINC000426037318
 48 50 1 0 0
SMALL
USER_CHARGES


@<TRIPOS>ATOM
      1 C1          2.4203    0.5133   49.0199 C.3     1  ZINC000426037318    0.0300
      2 O2          1.3745    1.0249   49.8484 O.3     1  ZINC000426037318   -0.3800
      3 C3          0.5121    1.9539   49.1887 C.3     1  ZINC000426037318    0.1300
      4 C4         -0.6839    2.2360   50.0610 C.ar    1  ZINC000426037318    0.3900
      5 N5         -0.5028    2.8612   51.2104 N.ar    1  ZINC000426037318   -0.5700
      6 C6         -1.5181    3.1333   52.0126 C.ar    1  ZINC000426037318    0.4400
      7 O7         -1.3136    3.7752   53.1864 O.3     1  ZINC000426037318   -0.2800
      8 C8         -0.1791    4.6407   53.2634 C.3     1  ZINC000426037318    0.0300
      9 C9         -2.8275    2.7419   51.6232 C.ar    1  ZINC000426037318   -0.2000
     10 C10        -4.0503    2.9100   52.2831 C.2     1  ZINC000426037318    0.0500
     11 C11        -4.1540    3.5937   53.6221 C.3     1  ZINC000426037318   -0.1200
     12 C12        -5.1215    2.4231   51.6448 C.2     1  ZINC000426037318   -0.2700
     13 C13        -6.4976    2.4900   52.1521 C.2     1  ZINC000426037318    0.6000
     14 O14        -7.2623    3.3358   51.7270 O.2     1  ZINC000426037318   -0.5000
     15 N15        -6.9139    1.6147   53.0886 N.am    1  ZINC000426037318   -0.6600
     16 C16        -8.2269    1.6786   53.5726 C.ar    1  ZINC000426037318    0.1200
     17 C17        -8.6703    2.8181   54.2295 C.ar    1  ZINC000426037318   -0.0700
     18 C18        -9.9653    2.8805   54.7061 C.ar    1  ZINC000426037318   -0.0900
     19 C19       -10.4465    4.1181   55.4188 C.3     1  ZINC000426037318   -0.1100
     20 C20       -10.8230    1.8051   54.5288 C.ar    1  ZINC000426037318    0.1300
     21 O21       -12.0976    1.8680   54.9981 O.3     1  ZINC000426037318   -0.3100
     22 C22       -12.9110    0.7061   54.8243 C.3     1  ZINC000426037318    0.0200
     23 C23       -10.3815    0.6653   53.8724 C.ar    1  ZINC000426037318   -0.1800
     24 C24        -9.0883    0.6030   53.3903 C.ar    1  ZINC000426037318   -0.0300
     25 Cl25       -8.5355   -0.8228   52.5684 Cl      1  ZINC000426037318   -0.0600
     26 S26        -4.6548    1.6941   50.1177 S.3     1  ZINC000426037318    0.2200
     27 C27        -2.9619    2.0813   50.3933 C.ar    1  ZINC000426037318    0.1300
     28 N28        -1.8724    1.8568   49.6509 N.ar    1  ZINC000426037318   -0.5000
     29 H29         3.0302   -0.1843   49.5939 H       1  ZINC000426037318    0.0900
     30 H30         1.9859   -0.0032   48.1639 H       1  ZINC000426037318    0.0500
     31 H31         3.0425    1.3370   48.6698 H       1  ZINC000426037318    0.0500
     32 H32         1.0525    2.8818   49.0018 H       1  ZINC000426037318    0.0900
     33 H33         0.1788    1.5304   48.2412 H       1  ZINC000426037318    0.0800
     34 H34        -0.2691    5.4254   52.5123 H       1  ZINC000426037318    0.0700
     35 H35        -0.1320    5.0907   54.2550 H       1  ZINC000426037318    0.1100
     36 H36         0.7292    4.0662   53.0815 H       1  ZINC000426037318    0.0700
     37 H37        -4.3093    4.6623   53.4734 H       1  ZINC000426037318    0.0900
     38 H38        -4.9946    3.1783   54.1780 H       1  ZINC000426037318    0.1000
     39 H39        -3.2333    3.4350   54.1834 H       1  ZINC000426037318    0.0800
     40 H40        -6.3044    0.9404   53.4273 H       1  ZINC000426037318    0.4100
     41 H41        -8.0027    3.6556   54.3682 H       1  ZINC000426037318    0.1600
     42 H42       -10.8734    4.8117   54.6945 H       1  ZINC000426037318    0.0700
     43 H43       -11.2063    3.8436   56.1506 H       1  ZINC000426037318    0.0700
     44 H44        -9.6079    4.5939   55.9271 H       1  ZINC000426037318    0.0700
     45 H45       -13.0011    0.4813   53.7615 H       1  ZINC000426037318    0.0600
     46 H46       -12.4517   -0.1391   55.3369 H       1  ZINC000426037318    0.0600
     47 H47       -13.9010    0.8898   55.2419 H       1  ZINC000426037318    0.1000
     48 H48       -11.0500   -0.1717   53.7347 H       1  ZINC000426037318    0.1500
@<TRIPOS>BOND
     1     1     2    1
     2     1    29    1
     3     1    30    1
     4     1    31    1
     5     2     3    1
     6     3     4    1
     7     3    32    1
     8     3    33    1
     9     4    28   ar
    10     4     5   ar
    11     5     6   ar
    12     6     7    1
    13     6     9   ar
    14     7     8    1
    15     8    34    1
    16     8    35    1
    17     8    36    1
    18     9    27   ar
    19     9    10    1
    20    10    11    1
    21    10    12    2
    22    11    37    1
    23    11    38    1
    24    11    39    1
    25    12    13    1
    26    12    26    1
    27    13    14    2
    28    13    15   am
    29    15    16    1
    30    15    40    1
    31    16    24   ar
    32    16    17   ar
    33    17    18   ar
    34    17    41    1
    35    18    19    1
    36    18    20   ar
    37    19    42    1
    38    19    43    1
    39    19    44    1
    40    20    21    1
    41    20    23   ar
    42    21    22    1
    43    22    45    1
    44    22    46    1
    45    22    47    1
    46    23    24   ar
    47    23    48    1
    48    24    25    1
    49    26    27    1
    50    27    28   ar
@<TRIPOS>SUBSTRUCTURE
     1 ZINC000426037318        1 TEMP              0 ****  ****    0 ROOT


##########                                Name:    ZINC000821442454
##########                DOCK_Rotatable_Bonds:                   6
##########                         Heavy_Atoms:                  26
##########                    Molecular_Weight:             398.873
##########                DOCK_Rotatable_Bonds:                   6
##########                       Formal_Charge:          -0.0399996
##########                     HBond_Acceptors:                  11
##########                        HBond_Donors:                   2
##########                         Heavy_Atoms:                  26
##########                          Grid_Score:          -31.426224
##########                     Grid_vdw_energy:          -31.315960
##########                      Grid_es_energy:           -0.110265
##########           Internal_energy_repulsive:            7.510345

@<TRIPOS>MOLECULE
ZINC000821442454
 45 47 1 0 0
SMALL
USER_CHARGES


@<TRIPOS>ATOM
      1 C1        -17.8876   -1.7670   59.3108 C.3     1  ZINC000821442454   -0.1500
      2 C2        -16.3959   -1.4435   59.4159 C.3     1  ZINC000821442454   -0.6300
      3 S3        -15.4274   -2.8519   58.8083 S.o2    1  ZINC000821442454    2.6000
      4 O4        -15.6057   -3.9809   59.6525 O.2     1  ZINC000821442454   -0.9500
      5 O5        -15.5456   -2.9664   57.3968 O.2     1  ZINC000821442454   -0.9500
      6 N6        -13.8514   -2.4052   59.0513 N.am    1  ZINC000821442454   -1.0000
      7 C7        -13.3592   -2.1014   60.4019 C.3     1  ZINC000821442454    0.1100
      8 C8        -12.7077   -0.7150   60.3890 C.3     1  ZINC000821442454   -0.1300
      9 C9        -11.6304   -0.6720   59.3030 C.3     1  ZINC000821442454   -0.1100
     10 C10       -12.2722   -0.9168   57.9354 C.3     1  ZINC000821442454   -0.1200
     11 H11       -13.0336   -0.1591   57.7500 H       1  ZINC000821442454    0.1100
     12 C12       -11.2159   -0.8414   56.8632 C.2     1  ZINC000821442454    0.5300
     13 O13       -10.4634   -1.7761   56.6865 O.2     1  ZINC000821442454   -0.5100
     14 N14       -11.1073    0.2646   56.1007 N.am    1  ZINC000821442454   -0.6700
     15 C15       -10.1270    0.3346   55.1055 C.ar    1  ZINC000821442454    0.1800
     16 C16       -10.3756   -0.2006   53.8480 C.ar    1  ZINC000821442454   -0.1200
     17 C17        -9.4106   -0.1323   52.8650 C.ar    1  ZINC000821442454   -0.0500
     18 C18        -8.1852    0.4741   53.1333 C.ar    1  ZINC000821442454   -0.0300
     19 C19        -7.1459    0.5488   52.0765 C.2     1  ZINC000821442454    0.2200
     20 N20        -6.4398    1.6100   51.7401 N.2     1  ZINC000821442454   -0.2900
     21 N21        -5.6465    1.2688   50.7835 N.pl3   1  ZINC000821442454   -0.2200
     22 N22        -5.8273    0.0254   50.5034 N.2     1  ZINC000821442454   -0.0400
     23 N23        -6.7382   -0.4513   51.2821 N.2     1  ZINC000821442454   -0.2700
     24 C24        -7.9368    1.0108   54.3955 C.ar    1  ZINC000821442454   -0.0500
     25 C25        -8.9065    0.9452   55.3745 C.ar    1  ZINC000821442454   -0.0800
     26 Cl26       -8.5984    1.6133   56.9469 Cl      1  ZINC000821442454   -0.0500
     27 C27       -12.9173   -2.3110   57.9212 C.3     1  ZINC000821442454    0.1400
     28 H28       -18.1445   -1.9625   58.2697 H       1  ZINC000821442454    0.0700
     29 H29       -18.1114   -2.6483   59.9119 H       1  ZINC000821442454    0.0700
     30 H30       -18.4695   -0.9208   59.6759 H       1  ZINC000821442454    0.0800
     31 H31       -16.1721   -0.5622   58.8148 H       1  ZINC000821442454    0.1300
     32 H32       -16.1390   -1.2481   60.4571 H       1  ZINC000821442454    0.1300
     33 H33       -14.1925   -2.1071   61.1045 H       1  ZINC000821442454    0.1000
     34 H34       -12.6229   -2.8483   60.6991 H       1  ZINC000821442454    0.0700
     35 H35       -13.4649    0.0408   60.1804 H       1  ZINC000821442454    0.0700
     36 H36       -12.2535   -0.5174   61.3600 H       1  ZINC000821442454    0.0800
     37 H37       -11.1483    0.3056   59.3081 H       1  ZINC000821442454    0.0700
     38 H38       -10.8866   -1.4444   59.4985 H       1  ZINC000821442454    0.0800
     39 H39       -11.7091    1.0121   56.2421 H       1  ZINC000821442454    0.4200
     40 H40       -11.3253   -0.6710   53.6401 H       1  ZINC000821442454    0.1600
     41 H41        -9.6046   -0.5490   51.8877 H       1  ZINC000821442454    0.1500
     42 H42        -5.0127    1.8567   50.3435 H       1  ZINC000821442454    0.4800
     43 H43        -6.9876    1.4812   54.6056 H       1  ZINC000821442454    0.1500
     44 H44       -12.1433   -3.0727   58.0154 H       1  ZINC000821442454    0.0800
     45 H45       -13.4605   -2.4527   56.9869 H       1  ZINC000821442454    0.1000
@<TRIPOS>BOND
     1     1     2    1
     2     1    28    1
     3     1    29    1
     4     1    30    1
     5     2     3    1
     6     2    31    1
     7     2    32    1
     8     3     4    2
     9     3     5    2
    10     3     6   am
    11     6    27    1
    12     6     7    1
    13     7     8    1
    14     7    33    1
    15     7    34    1
    16     8     9    1
    17     8    35    1
    18     8    36    1
    19     9    10    1
    20     9    37    1
    21     9    38    1
    22    10    11    1
    23    10    12    1
    24    10    27    1
    25    12    13    2
    26    12    14   am
    27    14    15    1
    28    14    39    1
    29    15    25   ar
    30    15    16   ar
    31    16    17   ar
    32    16    40    1
    33    17    18   ar
    34    17    41    1
    35    18    19    1
    36    18    24   ar
    37    19    23    1
    38    19    20    2
    39    20    21    1
    40    21    22    1
    41    21    42    1
    42    22    23    2
    43    24    25   ar
    44    24    43    1
    45    25    26    1
    46    27    44    1
    47    27    45    1
@<TRIPOS>SUBSTRUCTURE
     1 ZINC000821442454        1 TEMP              0 ****  ****    0 ROOT


##########                                Name:    ZINC000609484313
##########                DOCK_Rotatable_Bonds:                  10
##########                         Heavy_Atoms:                  26
##########                    Molecular_Weight:             361.487
##########                DOCK_Rotatable_Bonds:                  10
##########                       Formal_Charge:          -0.0200004
##########                     HBond_Acceptors:                   7
##########                        HBond_Donors:                   1
##########                         Heavy_Atoms:                  26
##########                          Grid_Score:          -31.393560
##########                     Grid_vdw_energy:          -30.561739
##########                      Grid_es_energy:           -0.831822
##########           Internal_energy_repulsive:           29.166540

@<TRIPOS>MOLECULE
ZINC000609484313
 57 58 1 0 0
SMALL
USER_CHARGES


@<TRIPOS>ATOM
      1 C1        -15.8933   -3.2661   59.4213 C.3     1  ZINC000609484313   -0.1500
      2 C2        -14.5749   -2.5052   59.5756 C.3     1  ZINC000609484313   -0.1300
      3 C3        -14.1742   -1.9007   58.2284 C.3     1  ZINC000609484313   -0.1100
      4 C4        -13.2133   -0.7327   58.4591 C.3     1  ZINC000609484313   -0.1100
      5 C5        -11.8077   -1.2739   58.7278 C.3     1  ZINC000609484313    0.0800
      6 H6        -11.8797   -2.2541   59.1991 H       1  ZINC000609484313    0.1200
      7 C7        -11.0590   -1.3963   57.4258 C.2     1  ZINC000609484313    0.4900
      8 O8        -10.6492   -2.4780   57.0613 O.2     1  ZINC000609484313   -0.5000
      9 N9        -10.8447   -0.3036   56.6664 N.am    1  ZINC000609484313   -0.6300
     10 C10       -10.1530   -0.4172   55.4603 C.2     1  ZINC000609484313    0.2400
     11 N11       -10.2356   -1.3958   54.5975 N.2     1  ZINC000609484313   -0.3900
     12 O12        -9.5127   -1.2096   53.6463 O.3     1  ZINC000609484313    0.1000
     13 C13        -8.8381   -0.0557   53.7534 C.2     1  ZINC000609484313   -0.0200
     14 C14        -7.8500    0.5050   52.7633 C.3     1  ZINC000609484313   -0.0800
     15 C15        -9.2224    0.5100   54.9203 C.2     1  ZINC000609484313   -0.2300
     16 N16       -11.0908   -0.3531   59.6202 N.3     1  ZINC000609484313   -0.5000
     17 C17        -9.6397   -0.5745   59.5500 C.3     1  ZINC000609484313    0.0400
     18 C18        -8.9262    0.4539   60.4306 C.3     1  ZINC000609484313    0.0500
     19 N19        -9.4088    0.3299   61.8132 N.3     1  ZINC000609484313   -0.5100
     20 C20        -8.6918    1.2508   62.7055 C.3     1  ZINC000609484313    0.1800
     21 H21        -7.9606    1.8186   62.1303 H       1  ZINC000609484313    0.1200
     22 C22        -9.6516    2.1764   63.3292 C.1     1  ZINC000609484313    0.1700
     23 N23       -10.3923    2.8907   63.8104 N.1     1  ZINC000609484313   -0.4200
     24 C24        -7.9741    0.4505   63.7942 C.3     1  ZINC000609484313   -0.0800
     25 C25        -7.1400    1.3986   64.6580 C.3     1  ZINC000609484313   -0.1400
     26 C26        -9.0079   -0.2606   64.6698 C.3     1  ZINC000609484313   -0.1500
     27 C27       -10.8598    0.5515   61.8833 C.3     1  ZINC000609484313    0.0500
     28 C28       -11.5733   -0.4770   61.0027 C.3     1  ZINC000609484313    0.0400
     29 H29       -16.6711   -2.5806   59.0850 H       1  ZINC000609484313    0.0500
     30 H30       -15.7693   -4.0629   58.6879 H       1  ZINC000609484313    0.0500
     31 H31       -16.1787   -3.6967   60.3811 H       1  ZINC000609484313    0.0500
     32 H32       -14.6989   -1.7084   60.3089 H       1  ZINC000609484313    0.0600
     33 H33       -13.7970   -3.1907   59.9120 H       1  ZINC000609484313    0.0600
     34 H34       -13.6830   -2.6607   57.6208 H       1  ZINC000609484313    0.0800
     35 H35       -15.0646   -1.5421   57.7119 H       1  ZINC000609484313    0.0600
     36 H36       -13.1948   -0.0971   57.5738 H       1  ZINC000609484313    0.0700
     37 H37       -13.5487   -0.1504   59.3173 H       1  ZINC000609484313    0.0800
     38 H38       -11.1714    0.5616   56.9585 H       1  ZINC000609484313    0.4200
     39 H39        -7.7542   -0.1779   51.9193 H       1  ZINC000609484313    0.0800
     40 H40        -8.2013    1.4740   52.4086 H       1  ZINC000609484313    0.0900
     41 H41        -6.8801    0.6246   53.2460 H       1  ZINC000609484313    0.0900
     42 H42        -8.8927    1.4459   55.3462 H       1  ZINC000609484313    0.1900
     43 H43        -9.4078   -1.5792   59.9033 H       1  ZINC000609484313    0.0800
     44 H44        -9.3046   -0.4650   58.5185 H       1  ZINC000609484313    0.0800
     45 H45        -7.8516    0.2732   60.4029 H       1  ZINC000609484313    0.0900
     46 H46        -9.1363    1.4574   60.0608 H       1  ZINC000609484313    0.0400
     47 H47        -7.3206   -0.2885   63.3307 H       1  ZINC000609484313    0.0800
     48 H48        -7.7936    2.1377   65.1215 H       1  ZINC000609484313    0.0600
     49 H49        -6.6287    0.8285   65.4337 H       1  ZINC000609484313    0.0500
     50 H50        -6.4035    1.9052   64.0343 H       1  ZINC000609484313    0.0700
     51 H51        -8.5028   -0.7543   65.4999 H       1  ZINC000609484313    0.0700
     52 H52        -9.7182    0.4690   65.0586 H       1  ZINC000609484313    0.0600
     53 H53        -9.5391   -1.0032   64.0743 H       1  ZINC000609484313    0.0500
     54 H54       -11.1949    0.4420   62.9148 H       1  ZINC000609484313    0.0900
     55 H55       -11.0918    1.5562   61.5300 H       1  ZINC000609484313    0.0400
     56 H56       -12.6478   -0.2964   61.0304 H       1  ZINC000609484313    0.0800
     57 H57       -11.3632   -1.4806   61.3726 H       1  ZINC000609484313    0.0800
@<TRIPOS>BOND
     1     1     2    1
     2     1    29    1
     3     1    30    1
     4     1    31    1
     5     2     3    1
     6     2    32    1
     7     2    33    1
     8     3     4    1
     9     3    34    1
    10     3    35    1
    11     4     5    1
    12     4    36    1
    13     4    37    1
    14     5     6    1
    15     5     7    1
    16     5    16    1
    17     7     8    2
    18     7     9   am
    19     9    10    1
    20     9    38    1
    21    10    15    1
    22    10    11    2
    23    11    12    1
    24    12    13    1
    25    13    14    1
    26    13    15    2
    27    14    39    1
    28    14    40    1
    29    14    41    1
    30    15    42    1
    31    16    28    1
    32    16    17    1
    33    17    18    1
    34    17    43    1
    35    17    44    1
    36    18    19    1
    37    18    45    1
    38    18    46    1
    39    19    20    1
    40    19    27    1
    41    20    21    1
    42    20    22    1
    43    20    24    1
    44    22    23    3
    45    24    25    1
    46    24    26    1
    47    24    47    1
    48    25    48    1
    49    25    49    1
    50    25    50    1
    51    26    51    1
    52    26    52    1
    53    26    53    1
    54    27    28    1
    55    27    54    1
    56    27    55    1
    57    28    56    1
    58    28    57    1
@<TRIPOS>SUBSTRUCTURE
     1 ZINC000609484313        1 TEMP              0 ****  ****    0 ROOT


##########                                Name:    ZINC000444811358
##########                DOCK_Rotatable_Bonds:                  11
##########                         Heavy_Atoms:                  27
##########                    Molecular_Weight:             374.455
##########                DOCK_Rotatable_Bonds:                  11
##########                       Formal_Charge:          0.00999966
##########                     HBond_Acceptors:                   6
##########                        HBond_Donors:                   2
##########                         Heavy_Atoms:                  27
##########                          Grid_Score:          -31.377319
##########                     Grid_vdw_energy:          -30.437937
##########                      Grid_es_energy:           -0.939383
##########           Internal_energy_repulsive:           19.236641

@<TRIPOS>MOLECULE
ZINC000444811358
 54 55 1 0 0
SMALL
USER_CHARGES


@<TRIPOS>ATOM
      1 C1          0.4078    2.5668   49.9939 C.3     1  ZINC000444811358   -0.1100
      2 C2         -0.9199    2.6411   50.7028 C.ar    1  ZINC000444811358   -0.1300
      3 C3         -2.0473    2.0990   50.1147 C.ar    1  ZINC000444811358   -0.0700
      4 C4         -3.2661    2.1656   50.7616 C.ar    1  ZINC000444811358   -0.1500
      5 C5         -3.3594    2.7776   52.0046 C.ar    1  ZINC000444811358    0.1700
      6 N6         -4.5930    2.8456   52.6614 N.am    1  ZINC000444811358   -0.6800
      7 C7         -5.4294    3.8745   52.4196 C.2     1  ZINC000444811358    0.5200
      8 O8         -5.1127    4.7413   51.6326 O.2     1  ZINC000444811358   -0.5000
      9 C9         -6.7580    3.9477   53.1270 C.3     1  ZINC000444811358    0.0200
     10 N10        -7.1293    2.6114   53.6110 N.3     1  ZINC000444811358   -0.5000
     11 C11        -7.6702    2.6770   54.9752 C.3     1  ZINC000444811358    0.0200
     12 C12        -6.5174    2.7669   55.9771 C.3     1  ZINC000444811358    0.1100
     13 H13        -5.5871    2.4792   55.4874 H       1  ZINC000444811358    0.1200
     14 O14        -6.4077    4.1081   56.4579 O.3     1  ZINC000444811358   -0.5400
     15 C15        -6.7880    1.8246   57.1518 C.3     1  ZINC000444811358    0.0300
     16 O16        -8.0038    2.2064   57.7984 O.3     1  ZINC000444811358   -0.3000
     17 C17        -8.4040    1.4514   58.8551 C.ar    1  ZINC000444811358    0.1300
     18 C18        -7.6501    0.3565   59.2520 C.ar    1  ZINC000444811358   -0.2100
     19 C19        -8.0588   -0.4091   60.3268 C.ar    1  ZINC000444811358   -0.0800
     20 C20        -9.2185   -0.0851   61.0065 C.ar    1  ZINC000444811358   -0.1600
     21 C21        -9.9719    1.0052   60.6127 C.ar    1  ZINC000444811358   -0.0800
     22 C22        -9.5642    1.7777   59.5423 C.ar    1  ZINC000444811358   -0.1500
     23 C23        -8.0819    1.9665   52.6974 C.3     1  ZINC000444811358    0.0700
     24 C24        -8.0761    0.4554   52.9379 C.3     1  ZINC000444811358   -0.1400
     25 C25        -9.4861    2.5180   52.9523 C.3     1  ZINC000444811358   -0.1900
     26 C26        -2.2264    3.3215   52.5949 C.ar    1  ZINC000444811358   -0.1500
     27 C27        -1.0074    3.2475   51.9453 C.ar    1  ZINC000444811358    0.1200
     28 F28         0.0961    3.7761   52.5179 F       1  ZINC000444811358   -0.1300
     29 H29         0.9197    1.6471   50.2767 H       1  ZINC000444811358    0.0700
     30 H30         0.2452    2.5755   48.9161 H       1  ZINC000444811358    0.0700
     31 H31         1.0188    3.4242   50.2760 H       1  ZINC000444811358    0.0700
     32 H32        -1.9751    1.6229   49.1480 H       1  ZINC000444811358    0.1400
     33 H33        -4.1462    1.7422   50.3006 H       1  ZINC000444811358    0.1300
     34 H34        -4.8463    2.1524   53.2908 H       1  ZINC000444811358    0.4100
     35 H35        -6.6825    4.6321   53.9720 H       1  ZINC000444811358    0.1300
     36 H36        -7.5190    4.3078   52.4347 H       1  ZINC000444811358    0.0700
     37 H37        -8.3054    3.5574   55.0722 H       1  ZINC000444811358    0.0500
     38 H38        -8.2576    1.7812   55.1767 H       1  ZINC000444811358    0.1000
     39 H39        -7.1372    4.3815   57.0308 H       1  ZINC000444811358    0.3700
     40 H40        -6.8773    0.8023   56.7844 H       1  ZINC000444811358    0.0600
     41 H41        -5.9640    1.8844   57.8628 H       1  ZINC000444811358    0.0700
     42 H42        -6.7445    0.1028   58.7210 H       1  ZINC000444811358    0.1300
     43 H43        -7.4723   -1.2615   60.6362 H       1  ZINC000444811358    0.1200
     44 H44        -9.5365   -0.6851   61.8464 H       1  ZINC000444811358    0.1200
     45 H45       -10.8775    1.2560   61.1451 H       1  ZINC000444811358    0.1300
     46 H46       -10.1530    2.6293   59.2350 H       1  ZINC000444811358    0.1300
     47 H47        -7.7925    2.1715   51.6667 H       1  ZINC000444811358    0.0900
     48 H48        -8.4912    0.2427   53.9231 H       1  ZINC000444811358    0.0500
     49 H49        -8.6801   -0.0361   52.1753 H       1  ZINC000444811358    0.0600
     50 H50        -7.0529    0.0833   52.8867 H       1  ZINC000444811358    0.0700
     51 H51        -9.4902    3.5945   52.7809 H       1  ZINC000444811358    0.0500
     52 H52       -10.1929    2.0395   52.2744 H       1  ZINC000444811358    0.0700
     53 H53        -9.7755    2.3131   53.9829 H       1  ZINC000444811358    0.0600
     54 H54        -2.2960    3.7984   53.5614 H       1  ZINC000444811358    0.1500
@<TRIPOS>BOND
     1     1     2    1
     2     1    29    1
     3     1    30    1
     4     1    31    1
     5     2    27   ar
     6     2     3   ar
     7     3     4   ar
     8     3    32    1
     9     4     5   ar
    10     4    33    1
    11     5     6    1
    12     5    26   ar
    13     6     7   am
    14     6    34    1
    15     7     8    2
    16     7     9    1
    17     9    10    1
    18     9    35    1
    19     9    36    1
    20    10    11    1
    21    10    23    1
    22    11    12    1
    23    11    37    1
    24    11    38    1
    25    12    13    1
    26    12    14    1
    27    12    15    1
    28    14    39    1
    29    15    16    1
    30    15    40    1
    31    15    41    1
    32    16    17    1
    33    17    22   ar
    34    17    18   ar
    35    18    19   ar
    36    18    42    1
    37    19    20   ar
    38    19    43    1
    39    20    21   ar
    40    20    44    1
    41    21    22   ar
    42    21    45    1
    43    22    46    1
    44    23    24    1
    45    23    25    1
    46    23    47    1
    47    24    48    1
    48    24    49    1
    49    24    50    1
    50    25    51    1
    51    25    52    1
    52    25    53    1
    53    26    27   ar
    54    26    54    1
    55    27    28    1
@<TRIPOS>SUBSTRUCTURE
     1 ZINC000444811358        1 TEMP              0 ****  ****    0 ROOT


##########                                Name:    ZINC000655982608
##########                DOCK_Rotatable_Bonds:                   5
##########                         Heavy_Atoms:                  29
##########                    Molecular_Weight:             388.469
##########                DOCK_Rotatable_Bonds:                   5
##########                       Formal_Charge:          -0.0200006
##########                     HBond_Acceptors:                   6
##########                        HBond_Donors:                   0
##########                         Heavy_Atoms:                  29
##########                          Grid_Score:          -31.374741
##########                     Grid_vdw_energy:          -31.241117
##########                      Grid_es_energy:           -0.133623
##########           Internal_energy_repulsive:           24.233400

@<TRIPOS>MOLECULE
ZINC000655982608
 53 57 1 0 0
SMALL
USER_CHARGES


@<TRIPOS>ATOM
      1 C1         -5.9282    5.1088   51.5632 C.3     1  ZINC000655982608   -0.1900
      2 C2         -6.3644    3.8281   52.2776 C.3     1  ZINC000655982608    0.0800
      3 H3         -6.3805    3.9999   53.3539 H       1  ZINC000655982608    0.1000
      4 C4         -7.7637    3.4309   51.8034 C.3     1  ZINC000655982608   -0.0300
      5 C5         -8.2950    2.3242   52.6775 C.2     1  ZINC000655982608    0.2000
      6 N6         -9.2424    2.4270   53.5782 N.2     1  ZINC000655982608   -0.4800
      7 C7         -9.3786    1.1960   54.1026 C.2     1  ZINC000655982608    0.1700
      8 C8        -10.3462    0.7893   55.1840 C.3     1  ZINC000655982608   -0.0100
      9 H9        -11.2560    1.3875   55.1359 H       1  ZINC000655982608    0.1300
     10 C10       -10.6710   -0.7200   55.0967 C.3     1  ZINC000655982608   -0.1400
     11 C11       -10.7815   -1.1598   56.5400 C.2     1  ZINC000655982608    0.5200
     12 O12       -11.2931   -2.1939   56.9139 O.2     1  ZINC000655982608   -0.5000
     13 N13       -10.2297   -0.2378   57.3477 N.am    1  ZINC000655982608   -0.5600
     14 C14       -10.1765   -0.3403   58.7421 C.ar    1  ZINC000655982608    0.1600
     15 C15        -9.0028   -0.0332   59.4182 C.ar    1  ZINC000655982608   -0.1600
     16 C16        -8.9535   -0.1355   60.7946 C.ar    1  ZINC000655982608   -0.0900
     17 C17       -10.0709   -0.5436   61.4996 C.ar    1  ZINC000655982608   -0.1400
     18 C18       -11.2408   -0.8506   60.8295 C.ar    1  ZINC000655982608   -0.0900
     19 C19       -11.2987   -0.7439   59.4536 C.ar    1  ZINC000655982608   -0.1600
     20 C20        -9.6907    0.8911   56.5791 C.3     1  ZINC000655982608    0.1100
     21 N21        -8.5230    0.4218   53.5052 N.2     1  ZINC000655982608   -0.3700
     22 O22        -7.8945    1.0491   52.6788 O.3     1  ZINC000655982608    0.0900
     23 N23        -5.4177    2.7483   51.9684 N.3     1  ZINC000655982608   -0.4700
     24 C24        -5.4947    2.3684   50.5410 C.3     1  ZINC000655982608    0.0300
     25 C25        -4.0491    1.9148   50.2333 C.3     1  ZINC000655982608   -0.0800
     26 C26        -3.2321    2.6754   51.2587 C.ar    1  ZINC000655982608   -0.1400
     27 C27        -1.8811    2.9380   51.3396 C.ar    1  ZINC000655982608   -0.0800
     28 C28        -1.3801    3.6753   52.3978 C.ar    1  ZINC000655982608   -0.1400
     29 C29        -2.2369    4.1489   53.3741 C.ar    1  ZINC000655982608   -0.0900
     30 C30        -3.5893    3.8871   53.2989 C.ar    1  ZINC000655982608   -0.1400
     31 C31        -4.1012    3.1425   52.2380 C.ar    1  ZINC000655982608    0.1000
     32 H32        -6.5641    5.9357   51.8794 H       1  ZINC000655982608    0.0700
     33 H33        -4.8914    5.3306   51.8157 H       1  ZINC000655982608    0.0700
     34 H34        -6.0186    4.9725   50.4855 H       1  ZINC000655982608    0.0700
     35 H35        -8.4271    4.2935   51.8660 H       1  ZINC000655982608    0.1200
     36 H36        -7.7130    3.0856   50.7708 H       1  ZINC000655982608    0.1100
     37 H37       -11.6160   -0.8773   54.5766 H       1  ZINC000655982608    0.1200
     38 H38        -9.8648   -1.2554   54.5954 H       1  ZINC000655982608    0.1200
     39 H39        -8.1296    0.2848   58.8681 H       1  ZINC000655982608    0.1200
     40 H40        -8.0411    0.1031   61.3209 H       1  ZINC000655982608    0.1300
     41 H41       -10.0296   -0.6230   62.5759 H       1  ZINC000655982608    0.1200
     42 H42       -12.1117   -1.1696   61.3828 H       1  ZINC000655982608    0.1300
     43 H43       -12.2128   -0.9838   58.9308 H       1  ZINC000655982608    0.1500
     44 H44        -8.6075    0.8061   56.4935 H       1  ZINC000655982608    0.0900
     45 H45        -9.9594    1.8340   57.0554 H       1  ZINC000655982608    0.1000
     46 H46        -6.1966    1.5470   50.3968 H       1  ZINC000655982608    0.1000
     47 H47        -5.7699    3.2258   49.9270 H       1  ZINC000655982608    0.0700
     48 H48        -3.9433    0.8394   50.3760 H       1  ZINC000655982608    0.0900
     49 H49        -3.7619    2.2011   49.2216 H       1  ZINC000655982608    0.0800
     50 H50        -1.2129    2.5674   50.5764 H       1  ZINC000655982608    0.1200
     51 H51        -0.3216    3.8802   52.4611 H       1  ZINC000655982608    0.1200
     52 H52        -1.8458    4.7258   54.1990 H       1  ZINC000655982608    0.1300
     53 H53        -4.2532    4.2595   54.0650 H       1  ZINC000655982608    0.1200
@<TRIPOS>BOND
     1     1     2    1
     2     1    32    1
     3     1    33    1
     4     1    34    1
     5     2     3    1
     6     2     4    1
     7     2    23    1
     8     4     5    1
     9     4    35    1
    10     4    36    1
    11     5    22    1
    12     5     6    2
    13     6     7    1
    14     7     8    1
    15     7    21    2
    16     8     9    1
    17     8    20    1
    18     8    10    1
    19    10    11    1
    20    10    37    1
    21    10    38    1
    22    11    12    2
    23    11    13   am
    24    13    14    1
    25    13    20    1
    26    14    19   ar
    27    14    15   ar
    28    15    16   ar
    29    15    39    1
    30    16    17   ar
    31    16    40    1
    32    17    18   ar
    33    17    41    1
    34    18    19   ar
    35    18    42    1
    36    19    43    1
    37    20    44    1
    38    20    45    1
    39    21    22    1
    40    23    31    1
    41    23    24    1
    42    24    25    1
    43    24    46    1
    44    24    47    1
    45    25    26    1
    46    25    48    1
    47    25    49    1
    48    26    31   ar
    49    26    27   ar
    50    27    28   ar
    51    27    50    1
    52    28    29   ar
    53    28    51    1
    54    29    30   ar
    55    29    52    1
    56    30    31   ar
    57    30    53    1
@<TRIPOS>SUBSTRUCTURE
     1 ZINC000655982608        1 TEMP              0 ****  ****    0 ROOT


##########                                Name:    ZINC001039825450
##########                DOCK_Rotatable_Bonds:                   8
##########                         Heavy_Atoms:                  24
##########                    Molecular_Weight:             337.339
##########                DOCK_Rotatable_Bonds:                   8
##########                       Formal_Charge:           0.0100001
##########                     HBond_Acceptors:                  11
##########                        HBond_Donors:                   4
##########                         Heavy_Atoms:                  24
##########                          Grid_Score:          -31.360155
##########                     Grid_vdw_energy:          -30.499493
##########                      Grid_es_energy:           -0.860663
##########           Internal_energy_repulsive:           10.922238

@<TRIPOS>MOLECULE
ZINC001039825450
 43 45 1 0 0
SMALL
USER_CHARGES


@<TRIPOS>ATOM
      1 O1        -12.1255   -2.9682   56.8365 O.2     1  ZINC001039825450   -0.5100
      2 C2        -11.6727   -1.9461   57.3069 C.2     1  ZINC001039825450    0.5000
      3 C3        -11.9928   -1.5648   58.7293 C.3     1  ZINC001039825450    0.1300
      4 N4        -13.2803   -2.1488   59.1135 N.pl3   1  ZINC001039825450   -0.1500
      5 N5        -13.5847   -2.5269   60.3044 N.2     1  ZINC001039825450   -0.2800
      6 C6        -14.8101   -3.0009   60.2959 C.2     1  ZINC001039825450   -0.0200
      7 C7        -15.2556   -2.8862   58.9772 C.2     1  ZINC001039825450   -0.0200
      8 N8        -14.2620   -2.3480   58.3071 N.2     1  ZINC001039825450   -0.2800
      9 N9        -10.8787   -1.1541   56.5594 N.am    1  ZINC001039825450   -0.7300
     10 C10       -10.5676   -1.5247   55.1767 C.3     1  ZINC001039825450    0.1000
     11 C11       -10.2075   -0.2687   54.3807 C.3     1  ZINC001039825450    0.1100
     12 O12       -11.3835    0.3457   53.8499 O.3     1  ZINC001039825450   -0.5400
     13 C13        -9.4116    0.7302   55.2618 C.3     1  ZINC001039825450   -0.1600
     14 C14        -8.6011    1.5082   54.1952 C.3     1  ZINC001039825450    0.1000
     15 N15        -8.2396    0.4976   53.1846 N.am    1  ZINC001039825450   -0.6100
     16 C16        -7.1926    0.5717   52.3393 C.2     1  ZINC001039825450    0.5200
     17 O17        -6.9904   -0.3219   51.5445 O.2     1  ZINC001039825450   -0.5100
     18 C18        -6.2729    1.7648   52.3816 C.3     1  ZINC001039825450    0.1100
     19 H19        -6.1116    2.0860   53.4106 H       1  ZINC001039825450    0.1200
     20 C20        -6.8464    2.9200   51.5380 C.3     1  ZINC001039825450    0.1100
     21 N21        -5.8285    3.1366   50.4990 N.am    1  ZINC001039825450   -0.7400
     22 C22        -4.8229    2.2707   50.6808 C.2     1  ZINC001039825450    0.7100
     23 O23        -3.8443    2.2303   49.9603 O.2     1  ZINC001039825450   -0.5800
     24 N24        -4.9915    1.4521   51.7316 N.am    1  ZINC001039825450   -0.7200
     25 C25        -9.2101   -0.6047   53.2520 C.3     1  ZINC001039825450    0.1200
     26 H26       -11.2118   -1.9402   59.3907 H       1  ZINC001039825450    0.1400
     27 H27       -12.0474   -0.4793   58.8111 H       1  ZINC001039825450    0.1400
     28 H28       -15.3599   -3.3982   61.1363 H       1  ZINC001039825450    0.2000
     29 H29       -16.2207   -3.1763   58.5888 H       1  ZINC001039825450    0.2000
     30 H30       -10.5134   -0.3387   56.9370 H       1  ZINC001039825450    0.4000
     31 H31        -9.7244   -2.2154   55.1665 H       1  ZINC001039825450    0.0900
     32 H32       -11.4358   -2.0046   54.7249 H       1  ZINC001039825450    0.0900
     33 H33       -11.9592   -0.2610   53.3645 H       1  ZINC001039825450    0.3800
     34 H34       -10.0842    1.3953   55.8033 H       1  ZINC001039825450    0.0900
     35 H35        -8.7490    0.2033   55.9484 H       1  ZINC001039825450    0.0900
     36 H36        -9.2151    2.2896   53.7477 H       1  ZINC001039825450    0.0800
     37 H37        -7.7035    1.9379   54.6399 H       1  ZINC001039825450    0.0800
     38 H38        -7.7963    2.6305   51.0885 H       1  ZINC001039825450    0.0900
     39 H39        -6.9675    3.8154   52.1476 H       1  ZINC001039825450    0.1000
     40 H40        -5.8775    3.8010   49.7941 H       1  ZINC001039825450    0.4400
     41 H41        -4.3683    0.7644   52.0139 H       1  ZINC001039825450    0.4400
     42 H42        -8.6953   -1.5385   53.4781 H       1  ZINC001039825450    0.0900
     43 H43        -9.7395   -0.6911   52.3032 H       1  ZINC001039825450    0.0900
@<TRIPOS>BOND
     1     1     2    2
     2     2     3    1
     3     2     9   am
     4     3     4    1
     5     3    26    1
     6     3    27    1
     7     4     8    1
     8     4     5    1
     9     5     6    2
    10     6     7    1
    11     6    28    1
    12     7     8    2
    13     7    29    1
    14     9    10    1
    15     9    30    1
    16    10    11    1
    17    10    31    1
    18    10    32    1
    19    11    25    1
    20    11    12    1
    21    11    13    1
    22    12    33    1
    23    13    14    1
    24    13    34    1
    25    13    35    1
    26    14    15    1
    27    14    36    1
    28    14    37    1
    29    15    16   am
    30    15    25    1
    31    16    17    2
    32    16    18    1
    33    18    19    1
    34    18    24    1
    35    18    20    1
    36    20    21    1
    37    20    38    1
    38    20    39    1
    39    21    22   am
    40    21    40    1
    41    22    23    2
    42    22    24   am
    43    24    41    1
    44    25    42    1
    45    25    43    1
@<TRIPOS>SUBSTRUCTURE
     1 ZINC001039825450        1 TEMP              0 ****  ****    0 ROOT


##########                                Name:    ZINC000193795672
##########                DOCK_Rotatable_Bonds:                  10
##########                         Heavy_Atoms:                  23
##########                    Molecular_Weight:              332.47
##########                DOCK_Rotatable_Bonds:                  10
##########                       Formal_Charge:        -2.98023e-07
##########                     HBond_Acceptors:                   6
##########                        HBond_Donors:                   3
##########                         Heavy_Atoms:                  23
##########                          Grid_Score:          -31.350939
##########                     Grid_vdw_energy:          -31.033297
##########                      Grid_es_energy:           -0.317641
##########           Internal_energy_repulsive:            6.288813

@<TRIPOS>MOLECULE
ZINC000193795672
 47 48 1 0 0
SMALL
USER_CHARGES


@<TRIPOS>ATOM
      1 C1          0.2712    2.2405   50.2428 C.3     1  <0>        -0.1000
      2 C2         -1.1584    2.4577   50.6675 C.ar    1  <0>        -0.2000
      3 C3         -2.2027    2.0627   49.8423 C.ar    1  <0>        -0.0300
      4 C4         -3.5004    2.2799   50.2699 C.ar    1  <0>        -0.2400
      5 C5         -3.7136    2.8832   51.5049 C.ar    1  <0>         0.4000
      6 N6         -5.0124    3.1074   51.9468 N.pl3   1  <0>        -0.7300
      7 C7         -6.0123    2.0407   51.8539 C.3     1  <0>         0.1300
      8 C8         -6.9285    2.0924   53.0781 C.3     1  <0>        -0.1400
      9 C9         -7.7707    0.8166   53.1390 C.3     1  <0>         0.1400
     10 N10        -8.4720    0.7552   54.4238 N.am    1  <0>        -0.7500
     11 C11        -9.4002   -0.1978   54.6400 C.2     1  <0>         0.7100
     12 O12        -9.6544   -1.0076   53.7693 O.2     1  <0>        -0.5900
     13 N13       -10.0465   -0.2533   55.8214 N.am    1  <0>        -0.7400
     14 C14       -11.0567   -1.2880   56.0558 C.3     1  <0>         0.1700
     15 H15       -11.5560   -1.5276   55.1170 H       1  <0>         0.0900
     16 C16       -10.3810   -2.5443   56.6092 C.3     1  <0>        -0.1700
     17 C17       -12.0865   -0.7762   57.0650 C.3     1  <0>        -0.0600
     18 C18       -13.2132   -1.7702   57.1810 C.2     1  <0>        -0.1700
     19 C19       -13.8757   -2.3048   56.1541 C.2     1  <0>        -0.1400
     20 C20       -14.8737   -3.1975   56.5051 C.2     1  <0>        -0.1300
     21 C21       -15.0218   -3.3878   57.8171 C.2     1  <0>        -0.2100
     22 S22       -13.8506   -2.4087   58.6908 S.3     1  <0>         0.0900
     23 N23        -2.6906    3.2454   52.2636 N.ar    1  <0>        -0.5400
     24 C24        -1.4428    3.0463   51.8835 C.ar    1  <0>         0.1500
     25 H25         0.6077    1.2624   50.5866 H       1  <0>         0.0700
     26 H26         0.3383    2.2864   49.1558 H       1  <0>         0.0600
     27 H27         0.9015    3.0156   50.6788 H       1  <0>         0.0700
     28 H28        -2.0066    1.5968   48.8879 H       1  <0>         0.1300
     29 H29        -4.3365    1.9854   49.6529 H       1  <0>         0.1300
     30 H30        -5.2566    3.9702   52.3169 H       1  <0>         0.4000
     31 H31        -6.6058    2.1770   50.9498 H       1  <0>         0.0700
     32 H32        -5.5100    1.0741   51.8166 H       1  <0>         0.0700
     33 H33        -6.3238    2.1720   53.9814 H       1  <0>         0.0800
     34 H34        -7.5860    2.9586   53.0035 H       1  <0>         0.0800
     35 H35        -8.4986    0.8226   52.3277 H       1  <0>         0.0700
     36 H36        -7.1211   -0.0528   53.0378 H       1  <0>         0.0700
     37 H37        -8.2684    1.4004   55.1188 H       1  <0>         0.4000
     38 H38        -9.8429    0.3921   56.5164 H       1  <0>         0.3900
     39 H39        -9.8817   -2.3047   57.5481 H       1  <0>         0.0600
     40 H40       -11.1327   -3.3142   56.7836 H       1  <0>         0.0700
     41 H41        -9.6474   -2.9090   55.8903 H       1  <0>         0.0700
     42 H42       -11.6108   -0.6510   58.0377 H       1  <0>         0.1000
     43 H43       -12.4808    0.1822   56.7273 H       1  <0>         0.0800
     44 H44       -13.6506   -2.0596   55.1267 H       1  <0>         0.1400
     45 H45       -15.4864   -3.7015   55.7723 H       1  <0>         0.1400
     46 H46       -15.7473   -4.0452   58.2729 H       1  <0>         0.1600
     47 H47        -0.6335    3.3549   52.5286 H       1  <0>         0.1500
@<TRIPOS>BOND
     1     1     2    1
     2     1    25    1
     3     1    26    1
     4     1    27    1
     5     2    24   ar
     6     2     3   ar
     7     3     4   ar
     8     3    28    1
     9     4     5   ar
    10     4    29    1
    11     5     6    1
    12     5    23   ar
    13     6     7    1
    14     6    30    1
    15     7     8    1
    16     7    31    1
    17     7    32    1
    18     8     9    1
    19     8    33    1
    20     8    34    1
    21     9    10    1
    22     9    35    1
    23     9    36    1
    24    10    11   am
    25    10    37    1
    26    11    12    2
    27    11    13   am
    28    13    14    1
    29    13    38    1
    30    14    15    1
    31    14    16    1
    32    14    17    1
    33    16    39    1
    34    16    40    1
    35    16    41    1
    36    17    18    1
    37    17    42    1
    38    17    43    1
    39    18    22    1
    40    18    19    2
    41    19    20    1
    42    19    44    1
    43    20    21    2
    44    20    45    1
    45    21    22    1
    46    21    46    1
    47    23    24   ar
    48    24    47    1
@<TRIPOS>SUBSTRUCTURE
     1 <0>         1 TEMP              0 ****  ****    0 ROOT


##########                                Name:    ZINC000188380122
##########                DOCK_Rotatable_Bonds:                   6
##########                         Heavy_Atoms:                  27
##########                    Molecular_Weight:             396.433
##########                DOCK_Rotatable_Bonds:                   6
##########                       Formal_Charge:           0.0299998
##########                     HBond_Acceptors:                   8
##########                        HBond_Donors:                   1
##########                         Heavy_Atoms:                  27
##########                          Grid_Score:          -31.321775
##########                     Grid_vdw_energy:          -30.676527
##########                      Grid_es_energy:           -0.645248
##########           Internal_energy_repulsive:           10.910492

@<TRIPOS>MOLECULE
ZINC000188380122
 46 49 1 0 0
SMALL
USER_CHARGES


@<TRIPOS>ATOM
      1 O1         -6.8360    3.2553   51.1019 O.2     1  ZINC000188380122   -0.5200
      2 C2         -6.5108    2.1831   51.5661 C.2     1  ZINC000188380122    0.5200
      3 C3         -5.4119    1.3826   50.9158 C.3     1  ZINC000188380122   -0.0700
      4 C4         -4.0789    2.0113   51.2304 C.2     1  ZINC000188380122    0.0900
      5 C5         -3.9141    2.8496   52.2591 C.2     1  ZINC000188380122   -0.2400
      6 S6         -2.2278    3.3614   52.2882 S.3     1  ZINC000188380122    0.1000
      7 C7         -1.9063    2.3656   50.8708 C.2     1  ZINC000188380122    0.1100
      8 C8         -0.5970    2.2285   50.1976 C.ar    1  ZINC000188380122   -0.0200
      9 C9         -0.5128    1.6133   48.9481 C.ar    1  ZINC000188380122   -0.0400
     10 C10         0.7121    1.4888   48.3249 C.ar    1  ZINC000188380122   -0.1200
     11 C11         1.8550    1.9720   48.9365 C.ar    1  ZINC000188380122   -0.0600
     12 C12         1.7781    2.5830   50.1757 C.ar    1  ZINC000188380122   -0.1800
     13 C13         3.0283    3.1069   50.8344 C.3     1  ZINC000188380122    0.5100
     14 F14         3.6873    2.0581   51.4847 F       1  ZINC000188380122   -0.1700
     15 F15         3.8718    3.6568   49.8632 F       1  ZINC000188380122   -0.1700
     16 F16         2.6861    4.0922   51.7668 F       1  ZINC000188380122   -0.1700
     17 C17         0.5590    2.7189   50.8067 C.ar    1  ZINC000188380122   -0.0500
     18 N18        -3.0058    1.7656   50.5147 N.2     1  ZINC000188380122   -0.4300
     19 N19        -7.1282    1.7099   52.6667 N.am    1  ZINC000188380122   -0.7200
     20 C20        -8.1964    2.4880   53.2989 C.3     1  ZINC000188380122    0.1300
     21 H21        -8.1910    3.5362   52.9999 H       1  ZINC000188380122    0.1200
     22 C22        -8.2934    2.2808   54.8208 C.3     1  ZINC000188380122   -0.1800
     23 C23        -9.8147    2.3158   54.6341 C.3     1  ZINC000188380122    0.0900
     24 H24       -10.2002    3.3352   54.6535 H       1  ZINC000188380122    0.1200
     25 O25       -10.5476    1.4725   55.4869 O.3     1  ZINC000188380122   -0.3700
     26 C26       -10.4420    0.0687   55.3383 C.3     1  ZINC000188380122    0.0700
     27 C27       -10.5929   -0.3372   53.8730 C.3     1  ZINC000188380122   -0.1600
     28 C28        -9.4671    0.3166   53.0659 C.3     1  ZINC000188380122   -0.1100
     29 C29        -9.5852    1.8244   53.2023 C.3     1  ZINC000188380122   -0.1500
     30 H30       -10.2463    2.2747   52.4618 H       1  ZINC000188380122    0.0900
     31 H31        -5.4313    0.3618   51.2975 H       1  ZINC000188380122    0.1100
     32 H32        -5.5618    1.3697   49.8362 H       1  ZINC000188380122    0.1100
     33 H33        -4.6820    3.1597   52.9523 H       1  ZINC000188380122    0.1800
     34 H34        -1.4042    1.2350   48.4698 H       1  ZINC000188380122    0.1500
     35 H35         0.7788    1.0130   47.3577 H       1  ZINC000188380122    0.1400
     36 H36         2.8113    1.8714   48.4450 H       1  ZINC000188380122    0.1500
     37 H37         0.5004    3.1960   51.7738 H       1  ZINC000188380122    0.1400
     38 H38        -6.8653    0.8541   53.0402 H       1  ZINC000188380122    0.4000
     39 H39        -7.9151    1.3152   55.1566 H       1  ZINC000188380122    0.0900
     40 H40        -7.9038    3.1163   55.4025 H       1  ZINC000188380122    0.0800
     41 H41        -9.4678   -0.2579   55.7020 H       1  ZINC000188380122    0.0500
     42 H42       -11.2231   -0.4136   55.9260 H       1  ZINC000188380122    0.1000
     43 H43       -10.5243   -1.4215   53.7848 H       1  ZINC000188380122    0.0800
     44 H44       -11.5579    0.0026   53.4967 H       1  ZINC000188380122    0.0800
     45 H45        -8.5023   -0.0112   53.4528 H       1  ZINC000188380122    0.0700
     46 H46        -9.5576    0.0342   52.0171 H       1  ZINC000188380122    0.0800
@<TRIPOS>BOND
     1     1     2    2
     2     2     3    1
     3     2    19   am
     4     3     4    1
     5     3    31    1
     6     3    32    1
     7     4    18    1
     8     4     5    2
     9     5     6    1
    10     5    33    1
    11     6     7    1
    12     7     8    1
    13     7    18    2
    14     8    17   ar
    15     8     9   ar
    16     9    10   ar
    17     9    34    1
    18    10    11   ar
    19    10    35    1
    20    11    12   ar
    21    11    36    1
    22    12    13    1
    23    12    17   ar
    24    13    14    1
    25    13    15    1
    26    13    16    1
    27    17    37    1
    28    19    20    1
    29    19    38    1
    30    20    21    1
    31    20    29    1
    32    20    22    1
    33    22    23    1
    34    22    39    1
    35    22    40    1
    36    23    24    1
    37    23    29    1
    38    23    25    1
    39    25    26    1
    40    26    27    1
    41    26    41    1
    42    26    42    1
    43    27    28    1
    44    27    43    1
    45    27    44    1
    46    28    29    1
    47    28    45    1
    48    28    46    1
    49    29    30    1
@<TRIPOS>SUBSTRUCTURE
     1 ZINC000188380122        1 TEMP              0 ****  ****    0 ROOT


##########                                Name:    ZINC000504638019
##########                DOCK_Rotatable_Bonds:                   8
##########                         Heavy_Atoms:                  24
##########                    Molecular_Weight:             328.454
##########                DOCK_Rotatable_Bonds:                   8
##########                       Formal_Charge:        -1.49012e-08
##########                     HBond_Acceptors:                   4
##########                        HBond_Donors:                   1
##########                         Heavy_Atoms:                  24
##########                          Grid_Score:          -31.277533
##########                     Grid_vdw_energy:          -31.266514
##########                      Grid_es_energy:           -0.011020
##########           Internal_energy_repulsive:           13.887714

@<TRIPOS>MOLECULE
ZINC000504638019
 52 53 1 0 0
SMALL
USER_CHARGES


@<TRIPOS>ATOM
      1 C1          0.0919    3.4907   51.8304 C.3     1  ZINC000504638019   -0.1200
      2 C2         -1.4067    3.3923   51.9547 C.ar    1  ZINC000504638019   -0.0900
      3 C3         -2.0433    3.9089   53.0677 C.ar    1  ZINC000504638019   -0.1200
      4 C4         -3.4180    3.8186   53.1818 C.ar    1  ZINC000504638019   -0.1100
      5 C5         -4.1561    3.2121   52.1825 C.ar    1  ZINC000504638019   -0.0900
      6 C6         -5.6546    3.1133   52.3071 C.3     1  ZINC000504638019   -0.0600
      7 H7         -5.9492    3.3327   53.3333 H       1  ZINC000504638019    0.0900
      8 C8         -6.3125    4.1202   51.3613 C.3     1  ZINC000504638019   -0.1500
      9 C9         -6.1048    1.6982   51.9386 C.3     1  ZINC000504638019    0.1300
     10 N10        -7.4770    1.4852   52.4053 N.am    1  ZINC000504638019   -0.7000
     11 C11        -7.9229    0.2350   52.6391 C.2     1  ZINC000504638019    0.5100
     12 O12        -7.1872   -0.7141   52.4643 O.2     1  ZINC000504638019   -0.5100
     13 C13        -9.3233    0.0175   53.1135 C.2     1  ZINC000504638019    0.5100
     14 O14       -10.1030   -0.6162   52.4330 O.2     1  ZINC000504638019   -0.5200
     15 N15        -9.7203    0.5251   54.2972 N.am    1  ZINC000504638019   -0.5800
     16 C16        -8.7790    1.2900   55.1189 C.3     1  ZINC000504638019    0.0600
     17 C17       -11.0930    0.3119   54.7622 C.3     1  ZINC000504638019    0.1100
     18 C18       -11.2081   -1.0775   55.3923 C.3     1  ZINC000504638019   -0.1000
     19 H19       -10.7802   -1.8212   54.7201 H       1  ZINC000504638019    0.0800
     20 C20       -12.6803   -1.4047   55.6511 C.3     1  ZINC000504638019   -0.0800
     21 C21       -12.7945   -2.6354   56.5023 C.2     1  ZINC000504638019   -0.1500
     22 C22       -11.8225   -3.1256   57.2024 C.2     1  ZINC000504638019   -0.1600
     23 C23       -10.4427   -2.5377   57.2530 C.3     1  ZINC000504638019   -0.0900
     24 C24       -10.4589   -1.1004   56.7307 C.3     1  ZINC000504638019   -0.1100
     25 C25        -3.5196    2.6969   51.0689 C.ar    1  ZINC000504638019   -0.1100
     26 C26        -2.1452    2.7905   50.9531 C.ar    1  ZINC000504638019   -0.1200
     27 H27         0.3545    4.4218   51.3282 H       1  ZINC000504638019    0.0700
     28 H28         0.5408    3.4746   52.8237 H       1  ZINC000504638019    0.0700
     29 H29         0.4646    2.6470   51.2497 H       1  ZINC000504638019    0.0700
     30 H30        -1.4667    4.3826   53.8484 H       1  ZINC000504638019    0.1200
     31 H31        -3.9153    4.2215   54.0516 H       1  ZINC000504638019    0.1200
     32 H32        -7.3964    4.0487   51.4514 H       1  ZINC000504638019    0.0600
     33 H33        -5.9919    5.1284   51.6238 H       1  ZINC000504638019    0.0600
     34 H34        -6.0179    3.9009   50.3351 H       1  ZINC000504638019    0.0600
     35 H35        -6.0659    1.5748   50.8563 H       1  ZINC000504638019    0.0800
     36 H36        -5.4433    0.9719   52.4111 H       1  ZINC000504638019    0.0800
     37 H37        -8.0646    2.2440   52.5463 H       1  ZINC000504638019    0.4100
     38 H38        -8.7609    2.3263   54.7813 H       1  ZINC000504638019    0.0600
     39 H39        -9.0938    1.2531   56.1618 H       1  ZINC000504638019    0.0700
     40 H40        -7.7819    0.8599   55.0249 H       1  ZINC000504638019    0.1100
     41 H41       -11.3472    1.0693   55.5038 H       1  ZINC000504638019    0.0900
     42 H42       -11.7783    0.3858   53.9179 H       1  ZINC000504638019    0.0900
     43 H43       -13.1522   -0.5661   56.1634 H       1  ZINC000504638019    0.0800
     44 H44       -13.1852   -1.5748   54.7003 H       1  ZINC000504638019    0.0600
     45 H45       -13.7470   -3.1435   56.5327 H       1  ZINC000504638019    0.1000
     46 H46       -12.0165   -4.0130   57.7868 H       1  ZINC000504638019    0.1000
     47 H47       -10.0844   -2.5449   58.2825 H       1  ZINC000504638019    0.0700
     48 H48        -9.7724   -3.1352   56.6352 H       1  ZINC000504638019    0.0700
     49 H49        -9.4362   -0.7503   56.5898 H       1  ZINC000504638019    0.0700
     50 H50       -10.9747   -0.4572   57.4436 H       1  ZINC000504638019    0.0700
     51 H51        -4.0962    2.2234   50.2880 H       1  ZINC000504638019    0.1200
     52 H52        -1.6480    2.3880   50.0830 H       1  ZINC000504638019    0.1200
@<TRIPOS>BOND
     1     1     2    1
     2     1    27    1
     3     1    28    1
     4     1    29    1
     5     2    26   ar
     6     2     3   ar
     7     3     4   ar
     8     3    30    1
     9     4     5   ar
    10     4    31    1
    11     5     6    1
    12     5    25   ar
    13     6     7    1
    14     6     8    1
    15     6     9    1
    16     8    32    1
    17     8    33    1
    18     8    34    1
    19     9    10    1
    20     9    35    1
    21     9    36    1
    22    10    11   am
    23    10    37    1
    24    11    12    2
    25    11    13    1
    26    13    14    2
    27    13    15   am
    28    15    16    1
    29    15    17    1
    30    16    38    1
    31    16    39    1
    32    16    40    1
    33    17    18    1
    34    17    41    1
    35    17    42    1
    36    18    19    1
    37    18    24    1
    38    18    20    1
    39    20    21    1
    40    20    43    1
    41    20    44    1
    42    21    22    2
    43    21    45    1
    44    22    23    1
    45    22    46    1
    46    23    24    1
    47    23    47    1
    48    23    48    1
    49    24    49    1
    50    24    50    1
    51    25    26   ar
    52    25    51    1
    53    26    52    1
@<TRIPOS>SUBSTRUCTURE
     1 ZINC000504638019        1 TEMP              0 ****  ****    0 ROOT


##########                                Name:    ZINC001757264545
##########                DOCK_Rotatable_Bonds:                  11
##########                         Heavy_Atoms:                  25
##########                    Molecular_Weight:             344.497
##########                DOCK_Rotatable_Bonds:                  11
##########                       Formal_Charge:          0.00999946
##########                     HBond_Acceptors:                   4
##########                        HBond_Donors:                   2
##########                         Heavy_Atoms:                  25
##########                          Grid_Score:          -31.230337
##########                     Grid_vdw_energy:          -31.583597
##########                      Grid_es_energy:            0.353259
##########           Internal_energy_repulsive:            8.566138

@<TRIPOS>MOLECULE
ZINC001757264545
 57 57 1 0 0
SMALL
USER_CHARGES


@<TRIPOS>ATOM
      1 C1         -0.5486    3.4598   51.6617 C.1     1  ZINC001757264545   -0.2100
      2 C2         -1.7092    3.2837   51.6473 C.1     1  ZINC001757264545   -0.1900
      3 C3         -3.1644    3.0628   51.6292 C.3     1  ZINC001757264545   -0.0100
      4 C4         -3.5111    2.0366   50.5485 C.3     1  ZINC001757264545   -0.1200
      5 C5         -4.9956    2.1491   50.1959 C.3     1  ZINC001757264545   -0.1200
      6 C6         -5.8272    1.4156   51.2500 C.3     1  ZINC001757264545   -0.1000
      7 C7         -6.7244    2.4174   51.9796 C.3     1  ZINC001757264545   -0.1400
      8 C8         -7.3000    1.7709   53.2132 C.2     1  ZINC001757264545    0.5100
      9 O9         -7.6222    0.6018   53.1909 O.2     1  ZINC001757264545   -0.5400
     10 N10        -7.4568    2.4917   54.3412 N.am    1  ZINC001757264545   -0.7300
     11 C11        -8.0147    1.8627   55.5408 C.3     1  ZINC001757264545    0.1400
     12 H12        -7.7181    0.8143   55.5728 H       1  ZINC001757264545    0.1000
     13 C13        -9.5411    1.9599   55.5047 C.3     1  ZINC001757264545   -0.1300
     14 C14       -10.1238    1.3030   56.7577 C.3     1  ZINC001757264545   -0.1200
     15 C15        -9.5963    2.0203   58.0019 C.3     1  ZINC001757264545   -0.1200
     16 C16        -8.0699    1.9231   58.0380 C.3     1  ZINC001757264545   -0.1300
     17 C17        -7.4873    2.5801   56.7850 C.3     1  ZINC001757264545    0.1400
     18 H18        -7.7839    3.6284   56.7531 H       1  ZINC001757264545    0.1000
     19 N19        -6.0256    2.4869   56.8196 N.am    1  ZINC001757264545   -0.7200
     20 C20        -5.2878    3.5754   57.1153 C.2     1  ZINC001757264545    0.6400
     21 O21        -5.8355    4.6345   57.3548 O.2     1  ZINC001757264545   -0.5200
     22 C22        -3.8590    3.4848   57.1474 C.1     1  ZINC001757264545   -0.2300
     23 C23        -2.6877    3.4106   57.1736 C.1     1  ZINC001757264545   -0.0500
     24 C24        -1.2190    3.3175   57.2066 C.3     1  ZINC001757264545    0.0300
     25 C25        -0.7292    3.4899   58.6458 C.3     1  ZINC001757264545   -0.1400
     26 C26        -0.7828    1.9488   56.6800 C.3     1  ZINC001757264545   -0.1400
     27 C27        -0.6185    4.4170   56.3283 C.3     1  ZINC001757264545   -0.1400
     28 H28         0.4894    3.6174   51.6747 H       1  ZINC001757264545    0.2200
     29 H29        -3.6720    4.0030   51.4135 H       1  ZINC001757264545    0.0900
     30 H30        -3.4874    2.6901   52.6012 H       1  ZINC001757264545    0.0900
     31 H31        -3.3008    1.0334   50.9194 H       1  ZINC001757264545    0.0700
     32 H32        -2.9108    2.2285   49.6593 H       1  ZINC001757264545    0.0700
     33 H33        -5.1717    1.7011   49.2179 H       1  ZINC001757264545    0.0700
     34 H34        -5.2846    3.1998   50.1715 H       1  ZINC001757264545    0.0700
     35 H35        -5.1622    0.9341   51.9670 H       1  ZINC001757264545    0.0700
     36 H36        -6.4456    0.6607   50.7643 H       1  ZINC001757264545    0.0700
     37 H37        -7.5350    2.7270   51.3198 H       1  ZINC001757264545    0.0900
     38 H38        -6.1367    3.2893   52.2669 H       1  ZINC001757264545    0.0900
     39 H39        -7.2002    3.4270   54.3586 H       1  ZINC001757264545    0.4000
     40 H40        -9.8378    3.0083   55.4728 H       1  ZINC001757264545    0.0700
     41 H41        -9.9169    1.4488   54.6183 H       1  ZINC001757264545    0.0800
     42 H42       -11.2113    1.3722   56.7320 H       1  ZINC001757264545    0.0700
     43 H43        -9.8272    0.2546   56.7896 H       1  ZINC001757264545    0.0700
     44 H44       -10.0115    1.5523   58.8944 H       1  ZINC001757264545    0.0700
     45 H45        -9.8930    3.0687   57.9699 H       1  ZINC001757264545    0.0700
     46 H46        -7.7732    0.8747   58.0699 H       1  ZINC001757264545    0.0700
     47 H47        -7.6942    2.4342   58.9244 H       1  ZINC001757264545    0.0800
     48 H48        -5.5888    1.6420   56.6296 H       1  ZINC001757264545    0.4000
     49 H49        -1.1570    2.7066   59.2715 H       1  ZINC001757264545    0.0600
     50 H50         0.3583    3.4210   58.6702 H       1  ZINC001757264545    0.0700
     51 H51        -1.0400    4.4650   59.0209 H       1  ZINC001757264545    0.0600
     52 H52        -1.1317    1.8259   55.6547 H       1  ZINC001757264545    0.0600
     53 H53         0.3047    1.8798   56.7043 H       1  ZINC001757264545    0.0700
     54 H54        -1.2107    1.1655   57.3057 H       1  ZINC001757264545    0.0600
     55 H55        -0.9293    5.3920   56.7035 H       1  ZINC001757264545    0.0600
     56 H56         0.4691    4.3480   56.3526 H       1  ZINC001757264545    0.0700
     57 H57        -0.9675    4.2941   55.3030 H       1  ZINC001757264545    0.0600
@<TRIPOS>BOND
     1     1     2    3
     2     1    28    1
     3     2     3    1
     4     3     4    1
     5     3    29    1
     6     3    30    1
     7     4     5    1
     8     4    31    1
     9     4    32    1
    10     5     6    1
    11     5    33    1
    12     5    34    1
    13     6     7    1
    14     6    35    1
    15     6    36    1
    16     7     8    1
    17     7    37    1
    18     7    38    1
    19     8     9    2
    20     8    10   am
    21    10    11    1
    22    10    39    1
    23    11    12    1
    24    11    17    1
    25    11    13    1
    26    13    14    1
    27    13    40    1
    28    13    41    1
    29    14    15    1
    30    14    42    1
    31    14    43    1
    32    15    16    1
    33    15    44    1
    34    15    45    1
    35    16    17    1
    36    16    46    1
    37    16    47    1
    38    17    18    1
    39    17    19    1
    40    19    20   am
    41    19    48    1
    42    20    21    2
    43    20    22    1
    44    22    23    3
    45    23    24    1
    46    24    25    1
    47    24    26    1
    48    24    27    1
    49    25    49    1
    50    25    50    1
    51    25    51    1
    52    26    52    1
    53    26    53    1
    54    26    54    1
    55    27    55    1
    56    27    56    1
    57    27    57    1
@<TRIPOS>SUBSTRUCTURE
     1 ZINC001757264545        1 TEMP              0 ****  ****    0 ROOT


##########                                Name:    ZINC000174621331
##########                DOCK_Rotatable_Bonds:                   8
##########                         Heavy_Atoms:                  25
##########                    Molecular_Weight:             366.438
##########                DOCK_Rotatable_Bonds:                   8
##########                       Formal_Charge:        -5.96046e-08
##########                     HBond_Acceptors:                   8
##########                        HBond_Donors:                   3
##########                         Heavy_Atoms:                  25
##########                          Grid_Score:          -31.175747
##########                     Grid_vdw_energy:          -30.983328
##########                      Grid_es_energy:           -0.192420
##########           Internal_energy_repulsive:           17.554899

@<TRIPOS>MOLECULE
ZINC000174621331
 47 48 1 0 0
SMALL
USER_CHARGES


@<TRIPOS>ATOM
      1 C1         -8.6293    4.1224   49.7509 C.3     1  ZINC000174621331    0.0300
      2 O2         -8.4830    4.1646   51.1718 O.3     1  ZINC000174621331   -0.3800
      3 C3         -7.1332    4.3245   51.6127 C.3     1  ZINC000174621331    0.0500
      4 C4         -6.3173    3.0930   51.2144 C.3     1  ZINC000174621331    0.2400
      5 H5         -6.3496    2.9703   50.1318 H       1  ZINC000174621331    0.1300
      6 N6         -4.9279    3.2677   51.6449 N.am    1  ZINC000174621331   -0.7200
      7 C7         -3.9195    2.8637   50.8471 C.2     1  ZINC000174621331    0.5600
      8 O8         -4.1629    2.3532   49.7712 O.2     1  ZINC000174621331   -0.5300
      9 C9         -2.5173    3.0415   51.2806 C.ar    1  ZINC000174621331   -0.1600
     10 C10        -2.2342    3.6340   52.5121 C.ar    1  ZINC000174621331   -0.0200
     11 C11        -0.9233    3.7966   52.9109 C.ar    1  ZINC000174621331   -0.1100
     12 C12        -0.6158    4.4361   54.2403 C.3     1  ZINC000174621331   -0.1200
     13 C13         0.1092    3.3733   52.0933 C.ar    1  ZINC000174621331    0.0400
     14 C14         1.5385    3.5536   52.5356 C.3     1  ZINC000174621331   -0.1600
     15 C15        -0.1646    2.7847   50.8712 C.ar    1  ZINC000174621331   -0.6800
     16 S16         1.1580    2.2486   49.8377 S.o2    1  ZINC000174621331    2.7000
     17 N17         0.4823    1.4785   48.5366 N.am    1  ZINC000174621331   -1.2500
     18 O18         1.7743    3.4249   49.3322 O.2     1  ZINC000174621331   -0.9500
     19 O19         1.8624    1.2556   50.5704 O.2     1  ZINC000174621331   -0.9600
     20 C20        -1.4708    2.6123   50.4625 C.ar    1  ZINC000174621331    0.0400
     21 C21        -6.8982    1.8700   51.8762 C.2     1  ZINC000174621331   -0.0200
     22 C22        -6.5081    0.6003   51.6636 C.2     1  ZINC000174621331   -0.1900
     23 C23        -7.3152   -0.2192   52.4856 C.2     1  ZINC000174621331   -0.2100
     24 C24        -8.1502    0.5986   53.1514 C.2     1  ZINC000174621331    0.0000
     25 C25        -9.1962    0.1691   54.1477 C.3     1  ZINC000174621331   -0.0800
     26 O26        -7.8891    1.8634   52.7827 O.3     1  ZINC000174621331   -0.1600
     27 H27        -8.2580    5.0521   49.3197 H       1  ZINC000174621331    0.0400
     28 H28        -8.0590    3.2836   49.3517 H       1  ZINC000174621331    0.0400
     29 H29        -9.6822    3.9993   49.4975 H       1  ZINC000174621331    0.0900
     30 H30        -6.7021    5.2116   51.1488 H       1  ZINC000174621331    0.0700
     31 H31        -7.1160    4.4366   52.6968 H       1  ZINC000174621331    0.0700
     32 H32        -4.7337    3.6740   52.5040 H       1  ZINC000174621331    0.4100
     33 H33        -3.0394    3.9649   53.1513 H       1  ZINC000174621331    0.1400
     34 H34        -0.5639    3.6665   55.0105 H       1  ZINC000174621331    0.0800
     35 H35         0.3406    4.9558   54.1809 H       1  ZINC000174621331    0.0800
     36 H36        -1.4015    5.1487   54.4912 H       1  ZINC000174621331    0.0700
     37 H37         1.8604    2.6733   53.0920 H       1  ZINC000174621331    0.1100
     38 H38         2.1758    3.6840   51.6610 H       1  ZINC000174621331    0.0700
     39 H39         1.6129    4.4341   53.1739 H       1  ZINC000174621331    0.0900
     40 H40        -0.1254    1.9573   47.9515 H       1  ZINC000174621331    0.4200
     41 H41         0.6941    0.5486   48.3597 H       1  ZINC000174621331    0.4200
     42 H42        -1.6831    2.1524   49.5087 H       1  ZINC000174621331    0.1600
     43 H43        -5.7285    0.2704   50.9931 H       1  ZINC000174621331    0.1500
     44 H44        -7.2702   -1.2955   52.5636 H       1  ZINC000174621331    0.1500
     45 H45        -8.7605    0.1501   55.1466 H       1  ZINC000174621331    0.0800
     46 H46       -10.0280    0.8731   54.1274 H       1  ZINC000174621331    0.0800
     47 H47        -9.5567   -0.8267   53.8895 H       1  ZINC000174621331    0.0900
@<TRIPOS>BOND
     1     1     2    1
     2     1    27    1
     3     1    28    1
     4     1    29    1
     5     2     3    1
     6     3     4    1
     7     3    30    1
     8     3    31    1
     9     4     5    1
    10     4     6    1
    11     4    21    1
    12     6     7   am
    13     6    32    1
    14     7     8    2
    15     7     9    1
    16     9    20   ar
    17     9    10   ar
    18    10    11   ar
    19    10    33    1
    20    11    12    1
    21    11    13   ar
    22    12    34    1
    23    12    35    1
    24    12    36    1
    25    13    14    1
    26    13    15   ar
    27    14    37    1
    28    14    38    1
    29    14    39    1
    30    15    16    1
    31    15    20   ar
    32    16    17   am
    33    16    18    2
    34    16    19    2
    35    17    40    1
    36    17    41    1
    37    20    42    1
    38    21    26    1
    39    21    22    2
    40    22    23    1
    41    22    43    1
    42    23    24    2
    43    23    44    1
    44    24    25    1
    45    24    26    1
    46    25    45    1
    47    25    46    1
    48    25    47    1
@<TRIPOS>SUBSTRUCTURE
     1 ZINC000174621331        1 TEMP              0 ****  ****    0 ROOT


##########                                Name:    ZINC000171059239
##########                DOCK_Rotatable_Bonds:                   8
##########                         Heavy_Atoms:                  25
##########                    Molecular_Weight:              333.39
##########                DOCK_Rotatable_Bonds:                   8
##########                       Formal_Charge:         1.10269e-06
##########                     HBond_Acceptors:                   5
##########                        HBond_Donors:                   4
##########                         Heavy_Atoms:                  25
##########                          Grid_Score:          -31.133850
##########                     Grid_vdw_energy:          -30.350719
##########                      Grid_es_energy:           -0.783130
##########           Internal_energy_repulsive:            7.390402

@<TRIPOS>MOLECULE
ZINC000171059239
 44 46 1 0 0
SMALL
USER_CHARGES


@<TRIPOS>ATOM
      1 N1         -3.2349    3.8654   54.7324 N.am    1  ZINC000171059239   -0.8500
      2 C2         -2.1243    3.6881   53.9899 C.2     1  ZINC000171059239    0.5600
      3 O3         -1.0307    3.9206   54.4669 O.2     1  ZINC000171059239   -0.5400
      4 C4         -2.2361    3.2111   52.5949 C.ar    1  ZINC000171059239   -0.1400
      5 C5         -1.0876    3.0167   51.8264 C.ar    1  ZINC000171059239   -0.0900
      6 C6         -1.1989    2.5709   50.5254 C.ar    1  ZINC000171059239   -0.1200
      7 C7         -2.4457    2.3173   49.9823 C.ar    1  ZINC000171059239   -0.0800
      8 C8         -3.5886    2.5085   50.7387 C.ar    1  ZINC000171059239   -0.0900
      9 C9         -4.9426    2.2300   50.1386 C.3     1  ZINC000171059239   -0.0900
     10 C10        -5.6480    1.1439   50.9534 C.3     1  ZINC000171059239    0.1400
     11 N11        -6.6264    1.7642   51.8502 N.am    1  ZINC000171059239   -0.7400
     12 C12        -7.2890    1.0102   52.7496 C.2     1  ZINC000171059239    0.7000
     13 O13        -7.0737   -0.1845   52.8176 O.2     1  ZINC000171059239   -0.5700
     14 N14        -8.1903    1.5805   53.5736 N.am    1  ZINC000171059239   -0.6800
     15 C15        -8.8767    0.7993   54.5053 C.ar    1  ZINC000171059239    0.1700
     16 C16        -8.6186    0.9456   55.8848 C.ar    1  ZINC000171059239   -0.0600
     17 C17        -7.6740    1.8714   56.3548 C.ar    1  ZINC000171059239   -0.1100
     18 C18        -7.4507    1.9861   57.6930 C.ar    1  ZINC000171059239   -0.1100
     19 C19        -8.1468    1.1965   58.6061 C.ar    1  ZINC000171059239   -0.1200
     20 C20        -9.0699    0.2886   58.1865 C.ar    1  ZINC000171059239   -0.1000
     21 C21        -9.3273    0.1427   56.8123 C.ar    1  ZINC000171059239   -0.0400
     22 C22       -10.2736   -0.7841   56.3432 C.ar    1  ZINC000171059239   -0.1200
     23 C23       -10.5030   -0.9040   55.0064 C.ar    1  ZINC000171059239   -0.0900
     24 C24        -9.8166   -0.1175   54.0863 C.ar    1  ZINC000171059239   -0.1200
     25 C25        -3.4909    2.9477   52.0426 C.ar    1  ZINC000171059239   -0.0500
     26 H26        -3.1615    4.1772   55.6480 H       1  ZINC000171059239    0.4100
     27 H27        -4.1079    3.6848   54.3501 H       1  ZINC000171059239    0.4000
     28 H28        -0.1137    3.2151   52.2491 H       1  ZINC000171059239    0.1300
     29 H29        -0.3108    2.4201   49.9296 H       1  ZINC000171059239    0.1300
     30 H30        -2.5274    1.9689   48.9634 H       1  ZINC000171059239    0.1300
     31 H31        -5.5408    3.1412   50.1530 H       1  ZINC000171059239    0.0800
     32 H32        -4.8213    1.8912   49.1097 H       1  ZINC000171059239    0.0800
     33 H33        -6.1583    0.4570   50.2782 H       1  ZINC000171059239    0.0700
     34 H34        -4.9122    0.5957   51.5417 H       1  ZINC000171059239    0.0700
     35 H35        -6.7973    2.7175   51.7968 H       1  ZINC000171059239    0.4000
     36 H36        -8.3621    2.5336   53.5192 H       1  ZINC000171059239    0.4100
     37 H37        -7.1267    2.4893   55.6584 H       1  ZINC000171059239    0.1200
     38 H38        -6.7234    2.6992   58.0519 H       1  ZINC000171059239    0.1200
     39 H39        -7.9507    1.3064   59.6624 H       1  ZINC000171059239    0.1200
     40 H40        -9.6015   -0.3170   58.9056 H       1  ZINC000171059239    0.1300
     41 H41       -10.8184   -1.4011   57.0425 H       1  ZINC000171059239    0.1300
     42 H42       -11.2322   -1.6189   54.6547 H       1  ZINC000171059239    0.1300
     43 H43       -10.0173   -0.2319   53.0313 H       1  ZINC000171059239    0.1400
     44 H44        -4.3836    3.0963   52.6320 H       1  ZINC000171059239    0.1400
@<TRIPOS>BOND
     1     1     2   am
     2     1    26    1
     3     1    27    1
     4     2     3    2
     5     2     4    1
     6     4    25   ar
     7     4     5   ar
     8     5     6   ar
     9     5    28    1
    10     6     7   ar
    11     6    29    1
    12     7     8   ar
    13     7    30    1
    14     8     9    1
    15     8    25   ar
    16     9    10    1
    17     9    31    1
    18     9    32    1
    19    10    11    1
    20    10    33    1
    21    10    34    1
    22    11    12   am
    23    11    35    1
    24    12    13    2
    25    12    14   am
    26    14    15    1
    27    14    36    1
    28    15    24   ar
    29    15    16   ar
    30    16    21   ar
    31    16    17   ar
    32    17    18   ar
    33    17    37    1
    34    18    19   ar
    35    18    38    1
    36    19    20   ar
    37    19    39    1
    38    20    21   ar
    39    20    40    1
    40    21    22   ar
    41    22    23   ar
    42    22    41    1
    43    23    24   ar
    44    23    42    1
    45    24    43    1
    46    25    44    1
@<TRIPOS>SUBSTRUCTURE
     1 ZINC000171059239        1 TEMP              0 ****  ****    0 ROOT


##########                                Name:    ZINC000129637895
##########                DOCK_Rotatable_Bonds:                   7
##########                         Heavy_Atoms:                  26
##########                    Molecular_Weight:             374.464
##########                DOCK_Rotatable_Bonds:                   7
##########                       Formal_Charge:        -5.51343e-07
##########                     HBond_Acceptors:                   8
##########                        HBond_Donors:                   1
##########                         Heavy_Atoms:                  26
##########                          Grid_Score:          -31.126389
##########                     Grid_vdw_energy:          -30.770336
##########                      Grid_es_energy:           -0.356051
##########           Internal_energy_repulsive:           26.541386

@<TRIPOS>MOLECULE
ZINC000129637895
 48 50 1 0 0
SMALL
USER_CHARGES


@<TRIPOS>ATOM
      1 C1         -7.9280    0.2378   59.1341 C.3     1  ZINC000129637895   -0.1500
      2 C2         -9.4569    0.2564   59.0791 C.3     1  ZINC000129637895   -0.0500
      3 C3         -9.9439   -0.9060   58.2528 C.2     1  ZINC000129637895    0.0300
      4 C4        -10.1797   -0.8143   56.9317 C.2     1  ZINC000129637895   -0.0200
      5 N5        -10.0174    0.3260   56.1460 N.am    1  ZINC000129637895   -0.5900
      6 C6        -10.4244    0.3225   54.8611 C.2     1  ZINC000129637895    0.5000
      7 O7        -10.9335   -0.6732   54.3883 O.2     1  ZINC000129637895   -0.4800
      8 C8        -10.2489    1.5426   54.0194 C.2     1  ZINC000129637895    0.5200
      9 O9        -10.9382    2.5215   54.2187 O.2     1  ZINC000129637895   -0.5100
     10 N10        -9.3251    1.5572   53.0381 N.am    1  ZINC000129637895   -0.5800
     11 C11        -9.1317    2.7511   52.2012 C.3     1  ZINC000129637895    0.0800
     12 C12        -7.6406    3.1039   52.1935 C.3     1  ZINC000129637895    0.0400
     13 N13        -6.8641    1.9259   51.7843 N.3     1  ZINC000129637895   -0.4900
     14 C14        -5.5173    2.2510   51.6071 C.ar    1  ZINC000129637895    0.1500
     15 C15        -4.9003    2.0171   50.3844 C.ar    1  ZINC000129637895   -0.2100
     16 C16        -3.5683    2.3392   50.2092 C.ar    1  ZINC000129637895   -0.0500
     17 C17        -2.8464    2.8940   51.2487 C.ar    1  ZINC000129637895   -0.2300
     18 C18        -3.4576    3.1299   52.4725 C.ar    1  ZINC000129637895    0.1500
     19 O19        -2.7463    3.6760   53.4936 O.3     1  ZINC000129637895   -0.3200
     20 C20        -1.4323    4.1479   53.1892 C.3     1  ZINC000129637895    0.0300
     21 C21        -4.7949    2.8135   52.6506 C.ar    1  ZINC000129637895   -0.1700
     22 C22        -7.0180    0.8259   52.7455 C.3     1  ZINC000129637895    0.0400
     23 C23        -8.4795    0.3819   52.7798 C.3     1  ZINC000129637895    0.1100
     24 S24       -10.7292   -2.3915   56.3704 S.3     1  ZINC000129637895    0.2400
     25 C25       -10.5891   -3.0155   57.9558 C.2     1  ZINC000129637895   -0.0300
     26 N26       -10.1697   -2.1003   58.7621 N.2     1  ZINC000129637895   -0.4500
     27 H27        -7.5919   -0.6954   59.5861 H       1  ZINC000129637895    0.0600
     28 H28        -7.5270    0.3171   58.1236 H       1  ZINC000129637895    0.0500
     29 H29        -7.5757    1.0786   59.7317 H       1  ZINC000129637895    0.0700
     30 H30        -9.8578    0.1771   60.0896 H       1  ZINC000129637895    0.0900
     31 H31        -9.7929    1.1895   58.6270 H       1  ZINC000129637895    0.0700
     32 H32        -9.6117    1.1218   56.5240 H       1  ZINC000129637895    0.4300
     33 H33        -9.4640    2.5430   51.1842 H       1  ZINC000129637895    0.0900
     34 H34        -9.7028    3.5833   52.6129 H       1  ZINC000129637895    0.1400
     35 H35        -7.4631    3.9184   51.4914 H       1  ZINC000129637895    0.1000
     36 H36        -7.3345    3.4118   53.1933 H       1  ZINC000129637895    0.0500
     37 H37        -5.4621    1.5830   49.5707 H       1  ZINC000129637895    0.1300
     38 H38        -3.0903    2.1568   49.2582 H       1  ZINC000129637895    0.1300
     39 H39        -1.8051    3.1440   51.1089 H       1  ZINC000129637895    0.1300
     40 H40        -0.8259    3.3213   52.8192 H       1  ZINC000129637895    0.0600
     41 H41        -1.4926    4.9241   52.4264 H       1  ZINC000129637895    0.0600
     42 H42        -0.9760    4.5585   54.0900 H       1  ZINC000129637895    0.1000
     43 H43        -5.2721    2.9967   53.6020 H       1  ZINC000129637895    0.1300
     44 H44        -6.3890   -0.0116   52.4437 H       1  ZINC000129637895    0.1000
     45 H45        -6.7206    1.1655   53.7377 H       1  ZINC000129637895    0.0500
     46 H46        -8.6202   -0.3537   53.5718 H       1  ZINC000129637895    0.1100
     47 H47        -8.7524   -0.0540   51.8188 H       1  ZINC000129637895    0.0900
     48 H48       -10.8153   -4.0324   58.2408 H       1  ZINC000129637895    0.2000
@<TRIPOS>BOND
     1     1     2    1
     2     1    27    1
     3     1    28    1
     4     1    29    1
     5     2     3    1
     6     2    30    1
     7     2    31    1
     8     3    26    1
     9     3     4    2
    10     4     5    1
    11     4    24    1
    12     5     6   am
    13     5    32    1
    14     6     7    2
    15     6     8    1
    16     8     9    2
    17     8    10   am
    18    10    23    1
    19    10    11    1
    20    11    12    1
    21    11    33    1
    22    11    34    1
    23    12    13    1
    24    12    35    1
    25    12    36    1
    26    13    14    1
    27    13    22    1
    28    14    21   ar
    29    14    15   ar
    30    15    16   ar
    31    15    37    1
    32    16    17   ar
    33    16    38    1
    34    17    18   ar
    35    17    39    1
    36    18    19    1
    37    18    21   ar
    38    19    20    1
    39    20    40    1
    40    20    41    1
    41    20    42    1
    42    21    43    1
    43    22    23    1
    44    22    44    1
    45    22    45    1
    46    23    46    1
    47    23    47    1
    48    24    25    1
    49    25    26    2
    50    25    48    1
@<TRIPOS>SUBSTRUCTURE
     1 ZINC000129637895        1 TEMP              0 ****  ****    0 ROOT


##########                                Name:    ZINC001119787528
##########                DOCK_Rotatable_Bonds:                   6
##########                         Heavy_Atoms:                  27
##########                    Molecular_Weight:             362.434
##########                DOCK_Rotatable_Bonds:                   6
##########                       Formal_Charge:          -0.0199998
##########                     HBond_Acceptors:                   7
##########                        HBond_Donors:                   1
##########                         Heavy_Atoms:                  27
##########                          Grid_Score:          -31.112646
##########                     Grid_vdw_energy:          -31.474504
##########                      Grid_es_energy:            0.361858
##########           Internal_energy_repulsive:           12.588006

@<TRIPOS>MOLECULE
ZINC001119787528
 49 52 1 0 0
SMALL
USER_CHARGES


@<TRIPOS>ATOM
      1 C1         -1.6674    4.1347   53.8281 C.3     1  ZINC001119787528   -0.1700
      2 C2         -1.7851    4.4736   52.3407 C.3     1  ZINC001119787528    0.1000
      3 N3         -2.5478    3.4243   51.6597 N.pl3   1  ZINC001119787528   -0.4500
      4 C4         -2.0580    2.5077   50.7935 C.2     1  ZINC001119787528    0.1800
      5 N5         -3.0389    1.7411   50.3930 N.2     1  ZINC001119787528   -0.4800
      6 C6         -4.1700    2.1365   50.9809 C.2     1  ZINC001119787528   -0.0200
      7 C7         -3.8828    3.1837   51.7836 C.2     1  ZINC001119787528   -0.0100
      8 C8         -4.8865    3.9168   52.6343 C.3     1  ZINC001119787528   -0.0600
      9 C9         -6.2965    3.6000   52.1191 C.3     1  ZINC001119787528    0.1400
     10 N10        -6.4037    2.1551   51.8679 N.am    1  ZINC001119787528   -0.6200
     11 C11        -7.2558    1.3920   52.5807 C.2     1  ZINC001119787528    0.7200
     12 O12        -7.3324    0.1988   52.3610 O.2     1  ZINC001119787528   -0.5600
     13 N13        -8.0228    1.9517   53.5374 N.am    1  ZINC001119787528   -0.6600
     14 C14        -8.9016    1.1646   54.2725 C.ar    1  ZINC001119787528    0.4200
     15 C15        -9.8868    0.4138   53.6307 C.ar    1  ZINC001119787528   -0.2500
     16 C16       -10.7360   -0.3532   54.4056 C.ar    1  ZINC001119787528    0.1600
     17 N17       -10.5882   -0.3508   55.7223 N.ar    1  ZINC001119787528   -0.5300
     18 C18        -9.6470    0.3698   56.2983 C.ar    1  ZINC001119787528    0.3500
     19 C19        -9.5171    0.3403   57.7994 C.3     1  ZINC001119787528   -0.0100
     20 C20       -10.5437   -0.6017   58.3739 C.ar    1  ZINC001119787528   -0.0800
     21 C21       -10.3807   -1.9676   58.2386 C.ar    1  ZINC001119787528   -0.1000
     22 C22       -11.3223   -2.8317   58.7654 C.ar    1  ZINC001119787528   -0.1200
     23 C23       -12.4269   -2.3298   59.4279 C.ar    1  ZINC001119787528   -0.1200
     24 C24       -12.5894   -0.9637   59.5640 C.ar    1  ZINC001119787528   -0.1200
     25 C25       -11.6456   -0.0998   59.0409 C.ar    1  ZINC001119787528   -0.1000
     26 N26        -8.8130    1.1110   55.5978 N.ar    1  ZINC001119787528   -0.5500
     27 C27        -5.5562    1.5583   50.8211 C.3     1  ZINC001119787528    0.2000
     28 H28        -1.0999    4.9153   54.3348 H       1  ZINC001119787528    0.0800
     29 H29        -2.6636    4.0676   54.2654 H       1  ZINC001119787528    0.0600
     30 H30        -1.1549    3.1797   53.9437 H       1  ZINC001119787528    0.0600
     31 H31        -2.2976    5.4286   52.2251 H       1  ZINC001119787528    0.0900
     32 H32        -0.7888    4.5405   51.9035 H       1  ZINC001119787528    0.1000
     33 H33        -1.0269    2.4232   50.4834 H       1  ZINC001119787528    0.2100
     34 H34        -4.7944    3.5911   53.6704 H       1  ZINC001119787528    0.0800
     35 H35        -4.7062    4.9897   52.5691 H       1  ZINC001119787528    0.0900
     36 H36        -7.0325    3.8955   52.8668 H       1  ZINC001119787528    0.1100
     37 H37        -6.4771    4.1453   51.1929 H       1  ZINC001119787528    0.0800
     38 H38        -7.9616    2.9037   53.7126 H       1  ZINC001119787528    0.4200
     39 H39        -9.9837    0.4319   52.5552 H       1  ZINC001119787528    0.1800
     40 H40       -11.5108   -0.9471   53.9435 H       1  ZINC001119787528    0.1700
     41 H41        -8.5183   -0.0015   58.0710 H       1  ZINC001119787528    0.1000
     42 H42        -9.6794    1.3416   58.1980 H       1  ZINC001119787528    0.1000
     43 H43        -9.5177   -2.3598   57.7209 H       1  ZINC001119787528    0.1300
     44 H44       -11.1954   -3.8989   58.6591 H       1  ZINC001119787528    0.1200
     45 H45       -13.1629   -3.0047   59.8389 H       1  ZINC001119787528    0.1200
     46 H46       -13.4526   -0.5715   60.0813 H       1  ZINC001119787528    0.1200
     47 H47       -11.7726    0.9674   59.1472 H       1  ZINC001119787528    0.1200
     48 H48        -5.9477    1.8140   49.8365 H       1  ZINC001119787528    0.0900
     49 H49        -5.5272    0.4753   50.9399 H       1  ZINC001119787528    0.0900
@<TRIPOS>BOND
     1     1     2    1
     2     1    28    1
     3     1    29    1
     4     1    30    1
     5     2     3    1
     6     2    31    1
     7     2    32    1
     8     3     7    1
     9     3     4    1
    10     4     5    2
    11     4    33    1
    12     5     6    1
    13     6    27    1
    14     6     7    2
    15     7     8    1
    16     8     9    1
    17     8    34    1
    18     8    35    1
    19     9    10    1
    20     9    36    1
    21     9    37    1
    22    10    11   am
    23    10    27    1
    24    11    12    2
    25    11    13   am
    26    13    14    1
    27    13    38    1
    28    14    26   ar
    29    14    15   ar
    30    15    16   ar
    31    15    39    1
    32    16    17   ar
    33    16    40    1
    34    17    18   ar
    35    18    19    1
    36    18    26   ar
    37    19    20    1
    38    19    41    1
    39    19    42    1
    40    20    25   ar
    41    20    21   ar
    42    21    22   ar
    43    21    43    1
    44    22    23   ar
    45    22    44    1
    46    23    24   ar
    47    23    45    1
    48    24    25   ar
    49    24    46    1
    50    25    47    1
    51    27    48    1
    52    27    49    1
@<TRIPOS>SUBSTRUCTURE
     1 ZINC001119787528        1 TEMP              0 ****  ****    0 ROOT


##########                                Name:    ZINC000284209281
##########                DOCK_Rotatable_Bonds:                   8
##########                         Heavy_Atoms:                  26
##########                    Molecular_Weight:             353.424
##########                DOCK_Rotatable_Bonds:                   8
##########                       Formal_Charge:          0.00999954
##########                     HBond_Acceptors:                   7
##########                        HBond_Donors:                   1
##########                         Heavy_Atoms:                  26
##########                          Grid_Score:          -31.100239
##########                     Grid_vdw_energy:          -30.924690
##########                      Grid_es_energy:           -0.175549
##########           Internal_energy_repulsive:           15.613808

@<TRIPOS>MOLECULE
ZINC000284209281
 49 51 1 0 0
SMALL
USER_CHARGES


@<TRIPOS>ATOM
      1 O1        -10.5600    0.4830   52.2744 O.2     1  <0>        -0.5100
      2 C2        -10.1381    1.3438   53.0185 C.2     1  <0>         0.5100
      3 N3        -10.2985    1.2205   54.3509 N.am    1  <0>        -0.7000
      4 C4        -10.9876    0.0504   54.9006 C.3     1  <0>         0.1200
      5 C5        -10.4707   -0.2289   56.3134 C.3     1  <0>        -0.1000
      6 C6        -11.0756   -1.5107   56.8253 C.ar    1  <0>        -0.0400
      7 C7        -10.3688   -2.3339   57.6885 C.ar    1  <0>        -0.1700
      8 C8        -10.9560   -3.5017   58.1373 C.ar    1  <0>         0.1000
      9 N9        -12.1725   -3.8358   57.7535 N.ar    1  <0>        -0.4900
     10 C10       -12.8738   -3.0774   56.9338 C.ar    1  <0>         0.1000
     11 C11       -12.3543   -1.8920   56.4489 C.ar    1  <0>        -0.1700
     12 C12        -9.4351    2.5374   52.4577 C.2     1  <0>         0.5100
     13 O13       -10.0766    3.4826   52.0482 O.2     1  <0>        -0.5200
     14 N14        -8.0885    2.5641   52.4066 N.am    1  <0>        -0.5800
     15 C15        -7.2921    1.4269   52.8919 C.3     1  <0>         0.0800
     16 C16        -6.2931    1.0309   51.7994 C.3     1  <0>         0.0400
     17 N17        -5.5134    2.2109   51.4022 N.3     1  <0>        -0.5300
     18 C18        -4.4296    1.8405   50.4823 C.3     1  <0>         0.1000
     19 C19        -3.1284    2.4127   50.9828 C.ar    1  <0>         0.1300
     20 C20        -3.1064    3.1263   52.1660 C.ar    1  <0>        -0.1500
     21 C21        -1.9038    3.6482   52.6181 C.ar    1  <0>        -0.0700
     22 C22        -0.7639    3.4317   51.8594 C.ar    1  <0>        -0.1700
     23 C23        -0.8631    2.7080   50.6860 C.ar    1  <0>         0.1000
     24 N24        -2.0229    2.2221   50.2894 N.ar    1  <0>        -0.4800
     25 C25        -6.3744    3.2446   50.8124 C.3     1  <0>         0.0400
     26 C26        -7.3768    3.7288   51.8588 C.3     1  <0>         0.1100
     27 H27        -9.9576    1.9066   54.9460 H       1  <0>         0.4100
     28 H28       -12.0596    0.2442   54.9377 H       1  <0>         0.0800
     29 H29       -10.7966   -0.8150   54.2661 H       1  <0>         0.0800
     30 H30        -9.3850   -0.3232   56.2909 H       1  <0>         0.0900
     31 H31       -10.7505    0.5934   56.9718 H       1  <0>         0.0900
     32 H32        -9.3718   -2.0662   58.0059 H       1  <0>         0.1400
     33 H33       -10.4121   -4.1484   58.8099 H       1  <0>         0.1600
     34 H34       -13.8672   -3.3841   56.6413 H       1  <0>         0.1600
     35 H35       -12.9338   -1.2750   55.7782 H       1  <0>         0.1400
     36 H36        -6.7527    1.7159   53.7939 H       1  <0>         0.0800
     37 H37        -7.9498    0.5852   53.1091 H       1  <0>         0.1400
     38 H38        -5.6210    0.2628   52.1821 H       1  <0>         0.0900
     39 H39        -6.8334    0.6442   50.9352 H       1  <0>         0.0400
     40 H40        -4.3527    0.7545   50.4299 H       1  <0>         0.0900
     41 H41        -4.6435    2.2379   49.4901 H       1  <0>         0.0600
     42 H42        -4.0143    3.2758   52.7313 H       1  <0>         0.1400
     43 H43        -1.8565    4.2103   53.5390 H       1  <0>         0.1400
     44 H44         0.1896    3.8240   52.1810 H       1  <0>         0.1400
     45 H45         0.0202    2.5353   50.0891 H       1  <0>         0.1600
     46 H46        -5.7613    4.0820   50.4792 H       1  <0>         0.1000
     47 H47        -6.9136    2.8272   49.9619 H       1  <0>         0.0400
     48 H48        -8.0896    4.4106   51.3950 H       1  <0>         0.1000
     49 H49        -6.8481    4.2392   52.6637 H       1  <0>         0.0800
@<TRIPOS>BOND
     1     1     2    2
     2     2     3   am
     3     2    12    1
     4     3     4    1
     5     3    27    1
     6     4     5    1
     7     4    28    1
     8     4    29    1
     9     5     6    1
    10     5    30    1
    11     5    31    1
    12     6    11   ar
    13     6     7   ar
    14     7     8   ar
    15     7    32    1
    16     8     9   ar
    17     8    33    1
    18     9    10   ar
    19    10    11   ar
    20    10    34    1
    21    11    35    1
    22    12    13    2
    23    12    14   am
    24    14    26    1
    25    14    15    1
    26    15    16    1
    27    15    36    1
    28    15    37    1
    29    16    17    1
    30    16    38    1
    31    16    39    1
    32    17    18    1
    33    17    25    1
    34    18    19    1
    35    18    40    1
    36    18    41    1
    37    19    24   ar
    38    19    20   ar
    39    20    21   ar
    40    20    42    1
    41    21    22   ar
    42    21    43    1
    43    22    23   ar
    44    22    44    1
    45    23    24   ar
    46    23    45    1
    47    25    26    1
    48    25    46    1
    49    25    47    1
    50    26    48    1
    51    26    49    1
@<TRIPOS>SUBSTRUCTURE
     1 <0>         1 TEMP              0 ****  ****    0 ROOT


##########                                Name:    ZINC000864730443
##########                DOCK_Rotatable_Bonds:                  10
##########                         Heavy_Atoms:                  25
##########                    Molecular_Weight:             356.462
##########                DOCK_Rotatable_Bonds:                  10
##########                       Formal_Charge:           0.0299988
##########                     HBond_Acceptors:                   7
##########                        HBond_Donors:                   2
##########                         Heavy_Atoms:                  25
##########                          Grid_Score:          -31.088198
##########                     Grid_vdw_energy:          -29.779200
##########                      Grid_es_energy:           -1.308997
##########           Internal_energy_repulsive:           20.750860

@<TRIPOS>MOLECULE
ZINC000864730443
 57 58 1 0 0
SMALL
USER_CHARGES


@<TRIPOS>ATOM
      1 C1         -8.0781    1.2590   66.8383 C.3     1  ZINC000864730443   -0.1800
      2 C2         -7.4806    1.8262   65.5491 C.3     1  ZINC000864730443    0.1400
      3 C3         -8.4695    2.8082   64.9177 C.3     1  ZINC000864730443   -0.1800
      4 C4         -6.1736    2.5540   65.8697 C.3     1  ZINC000864730443   -0.1400
      5 O5         -7.2157    0.7419   64.6205 O.3     1  ZINC000864730443   -0.3600
      6 C6         -8.2557    0.2918   63.8934 C.2     1  ZINC000864730443    0.6500
      7 O7         -9.0559   -0.4768   64.3889 O.2     1  ZINC000864730443   -0.5700
      8 N8         -8.4092    0.6938   62.6163 N.am    1  ZINC000864730443   -0.7100
      9 C9         -9.5399    0.2027   61.8246 C.3     1  ZINC000864730443    0.1500
     10 C10        -9.2590    0.4312   60.3380 C.3     1  ZINC000864730443   -0.1300
     11 C11       -10.5099    0.1620   59.5420 C.2     1  ZINC000864730443    0.5300
     12 O12       -11.4140    0.9705   59.5414 O.2     1  ZINC000864730443   -0.5300
     13 N13       -10.6240   -0.9771   58.8308 N.am    1  ZINC000864730443   -0.7200
     14 C14       -11.8401   -1.2388   58.0569 C.3     1  ZINC000864730443    0.1200
     15 C15       -12.5815   -2.4335   58.6603 C.3     1  ZINC000864730443   -0.1300
     16 C16       -13.5984   -1.9358   59.6894 C.3     1  ZINC000864730443    0.0800
     17 H17       -13.1342   -1.2126   60.3599 H       1  ZINC000864730443    0.0800
     18 C18       -14.8191   -1.3017   58.9762 C.3     1  ZINC000864730443   -0.1500
     19 C19       -15.9175   -1.4770   60.0601 C.3     1  ZINC000864730443   -0.1600
     20 C20       -15.5194   -2.8165   60.7165 C.3     1  ZINC000864730443    0.0500
     21 O21       -14.1308   -3.0398   60.4385 O.3     1  ZINC000864730443   -0.3800
     22 C22        -8.8125    1.8798   60.1182 C.3     1  ZINC000864730443   -0.1000
     23 C23        -8.4597    2.0752   58.6405 C.3     1  ZINC000864730443   -0.1600
     24 C24        -7.3775    1.0673   58.2447 C.3     1  ZINC000864730443    0.0600
     25 O25        -7.8453   -0.2580   58.5031 O.3     1  ZINC000864730443   -0.3700
     26 C26        -8.1459   -0.5132   59.8768 C.3     1  ZINC000864730443    0.0800
     27 H27        -9.0093    0.7406   66.6100 H       1  ZINC000864730443    0.0900
     28 H28        -7.3736    0.5594   67.2882 H       1  ZINC000864730443    0.0600
     29 H29        -8.2770    2.0730   67.5354 H       1  ZINC000864730443    0.0700
     30 H30        -8.6684    3.6222   65.6147 H       1  ZINC000864730443    0.0700
     31 H31        -8.0438    3.2123   63.9991 H       1  ZINC000864730443    0.0600
     32 H32        -9.4007    2.2898   64.6892 H       1  ZINC000864730443    0.0900
     33 H33        -5.4690    1.8544   66.3195 H       1  ZINC000864730443    0.0700
     34 H34        -5.7479    2.9581   64.9511 H       1  ZINC000864730443    0.0700
     35 H35        -6.3725    3.3680   66.5668 H       1  ZINC000864730443    0.0800
     36 H36        -7.7710    1.3083   62.2211 H       1  ZINC000864730443    0.4100
     37 H37        -9.6769   -0.8628   62.0089 H       1  ZINC000864730443    0.0900
     38 H38       -10.4440    0.7402   62.1103 H       1  ZINC000864730443    0.0800
     39 H39        -9.9010   -1.6237   58.8313 H       1  ZINC000864730443    0.4000
     40 H40       -12.4843   -0.3599   58.0843 H       1  ZINC000864730443    0.0700
     41 H41       -11.5726   -1.4611   57.0239 H       1  ZINC000864730443    0.0700
     42 H42       -13.1002   -2.9761   57.8699 H       1  ZINC000864730443    0.0800
     43 H43       -11.8664   -3.0966   59.1473 H       1  ZINC000864730443    0.0800
     44 H44       -14.6442   -0.2477   58.7608 H       1  ZINC000864730443    0.0900
     45 H45       -15.0719   -1.8496   58.0685 H       1  ZINC000864730443    0.0800
     46 H46       -15.8806   -0.6638   60.7848 H       1  ZINC000864730443    0.0800
     47 H47       -16.9050   -1.5470   59.6038 H       1  ZINC000864730443    0.0800
     48 H48       -15.6752   -2.7608   61.7939 H       1  ZINC000864730443    0.0700
     49 H49       -16.1165   -3.6258   60.2965 H       1  ZINC000864730443    0.0700
     50 H50        -9.6220    2.5565   60.3924 H       1  ZINC000864730443    0.0800
     51 H51        -7.9369    2.0888   60.7329 H       1  ZINC000864730443    0.0800
     52 H52        -9.3481    1.9145   58.0296 H       1  ZINC000864730443    0.0900
     53 H53        -8.0883    3.0882   58.4855 H       1  ZINC000864730443    0.0800
     54 H54        -7.1530    1.1730   57.1834 H       1  ZINC000864730443    0.1000
     55 H55        -6.4758    1.2546   58.8276 H       1  ZINC000864730443    0.0500
     56 H56        -7.2540   -0.3466   60.4809 H       1  ZINC000864730443    0.0700
     57 H57        -8.4748   -1.5461   59.9910 H       1  ZINC000864730443    0.1000
@<TRIPOS>BOND
     1     1     2    1
     2     1    27    1
     3     1    28    1
     4     1    29    1
     5     2     3    1
     6     2     4    1
     7     2     5    1
     8     3    30    1
     9     3    31    1
    10     3    32    1
    11     4    33    1
    12     4    34    1
    13     4    35    1
    14     5     6    1
    15     6     7    2
    16     6     8   am
    17     8     9    1
    18     8    36    1
    19     9    10    1
    20     9    37    1
    21     9    38    1
    22    10    26    1
    23    10    11    1
    24    10    22    1
    25    11    12    2
    26    11    13   am
    27    13    14    1
    28    13    39    1
    29    14    15    1
    30    14    40    1
    31    14    41    1
    32    15    16    1
    33    15    42    1
    34    15    43    1
    35    16    17    1
    36    16    21    1
    37    16    18    1
    38    18    19    1
    39    18    44    1
    40    18    45    1
    41    19    20    1
    42    19    46    1
    43    19    47    1
    44    20    21    1
    45    20    48    1
    46    20    49    1
    47    22    23    1
    48    22    50    1
    49    22    51    1
    50    23    24    1
    51    23    52    1
    52    23    53    1
    53    24    25    1
    54    24    54    1
    55    24    55    1
    56    25    26    1
    57    26    56    1
    58    26    57    1
@<TRIPOS>SUBSTRUCTURE
     1 ZINC000864730443        1 TEMP              0 ****  ****    0 ROOT


##########                                Name:    ZINC001105194920
##########                DOCK_Rotatable_Bonds:                   8
##########                         Heavy_Atoms:                  25
##########                    Molecular_Weight:             346.392
##########                DOCK_Rotatable_Bonds:                   8
##########                       Formal_Charge:          -0.0100007
##########                     HBond_Acceptors:                  10
##########                        HBond_Donors:                   3
##########                         Heavy_Atoms:                  25
##########                          Grid_Score:          -31.080463
##########                     Grid_vdw_energy:          -29.936157
##########                      Grid_es_energy:           -1.144306
##########           Internal_energy_repulsive:            8.346428

@<TRIPOS>MOLECULE
ZINC001105194920
 47 49 1 0 0
SMALL
USER_CHARGES


@<TRIPOS>ATOM
      1 C1        -15.8768   -3.0349   60.2768 C.3     1  ZINC001105194920    0.0300
      2 O2        -14.8832   -3.2611   59.2749 O.3     1  ZINC001105194920   -0.3900
      3 C3        -13.7374   -2.4151   59.3912 C.3     1  ZINC001105194920    0.0700
      4 C4        -12.7776   -2.6945   58.2329 C.3     1  ZINC001105194920    0.0900
      5 H5        -12.2979   -3.6616   58.3837 H       1  ZINC001105194920    0.0900
      6 C6        -13.5579   -2.7119   56.9168 C.3     1  ZINC001105194920   -0.1800
      7 N7        -11.7533   -1.6426   58.1810 N.3     1  ZINC001105194920   -0.6800
      8 C8        -10.6850   -1.8996   59.1559 C.3     1  ZINC001105194920    0.1400
      9 C9         -9.5258   -0.9753   58.8861 C.2     1  ZINC001105194920   -0.0200
     10 C10        -9.5958    0.3217   58.5055 C.2     1  ZINC001105194920   -0.0200
     11 N11        -8.3175    0.7478   58.3819 N.pl3   1  ZINC001105194920   -0.2800
     12 C12        -7.8959    2.0943   57.9878 C.3     1  ZINC001105194920    0.1000
     13 C13        -7.1516    2.1415   56.6410 C.3     1  ZINC001105194920    0.1100
     14 N14        -8.4781    2.3529   56.0296 N.am    1  ZINC001105194920   -0.6300
     15 C15        -9.0022    2.1271   54.8086 C.2     1  ZINC001105194920    0.6200
     16 O16       -10.1634    2.4086   54.5842 O.2     1  ZINC001105194920   -0.5400
     17 C17        -8.1658    1.5375   53.7432 C.ar    1  ZINC001105194920   -0.0600
     18 N18        -7.2249    2.2675   53.1513 N.ar    1  ZINC001105194920   -0.3700
     19 C19        -6.4808    1.7386   52.2013 C.ar    1  ZINC001105194920   -0.0200
     20 C20        -6.6725    0.4204   51.8128 C.ar    1  ZINC001105194920    0.1500
     21 N21        -7.6031   -0.3166   52.3911 N.ar    1  ZINC001105194920   -0.5100
     22 C22        -8.3565    0.2013   53.3543 C.ar    1  ZINC001105194920    0.4200
     23 N23        -9.3318   -0.5671   53.9629 N.pl3   1  ZINC001105194920   -0.8100
     24 C24        -9.0002    2.9108   57.2922 C.3     1  ZINC001105194920    0.1100
     25 N25        -7.5356   -0.2330   58.6706 N.2     1  ZINC001105194920   -0.0800
     26 N26        -8.2252   -1.2736   58.9811 N.2     1  ZINC001105194920   -0.2600
     27 H27       -16.2292   -2.0054   60.2129 H       1  ZINC001105194920    0.0400
     28 H28       -16.7132   -3.7158   60.1192 H       1  ZINC001105194920    0.0800
     29 H29       -15.4456   -3.2109   61.2623 H       1  ZINC001105194920    0.0400
     30 H30       -14.0513   -1.3718   59.3594 H       1  ZINC001105194920    0.0600
     31 H31       -13.2332   -2.6142   60.3368 H       1  ZINC001105194920    0.0500
     32 H32       -14.0376   -1.7447   56.7662 H       1  ZINC001105194920    0.0700
     33 H33       -12.8742   -2.9109   56.0917 H       1  ZINC001105194920    0.0500
     34 H34       -14.3178   -3.4923   56.9554 H       1  ZINC001105194920    0.0600
     35 H35       -11.3778   -1.5494   57.2491 H       1  ZINC001105194920    0.3500
     36 H36       -11.0626   -1.7245   60.1633 H       1  ZINC001105194920    0.0900
     37 H37       -10.3532   -2.9341   59.0670 H       1  ZINC001105194920    0.0500
     38 H38       -10.4917    0.8999   58.3342 H       1  ZINC001105194920    0.1800
     39 H39        -7.3906    2.6332   58.7894 H       1  ZINC001105194920    0.1500
     40 H40        -6.4802    2.9941   56.5397 H       1  ZINC001105194920    0.1200
     41 H41        -6.6855    1.1961   56.3633 H       1  ZINC001105194920    0.1000
     42 H42        -5.7178    2.3342   51.7224 H       1  ZINC001105194920    0.1800
     43 H43        -6.0578   -0.0048   51.0332 H       1  ZINC001105194920    0.1800
     44 H44        -9.4161   -1.5078   53.7419 H       1  ZINC001105194920    0.4000
     45 H45        -9.9317   -0.1654   54.6107 H       1  ZINC001105194920    0.4300
     46 H46       -10.0100    2.5796   57.5345 H       1  ZINC001105194920    0.1100
     47 H47        -8.8718    3.9895   57.3822 H       1  ZINC001105194920    0.1200
@<TRIPOS>BOND
     1     1     2    1
     2     1    27    1
     3     1    28    1
     4     1    29    1
     5     2     3    1
     6     3     4    1
     7     3    30    1
     8     3    31    1
     9     4     5    1
    10     4     6    1
    11     4     7    1
    12     6    32    1
    13     6    33    1
    14     6    34    1
    15     7     8    1
    16     7    35    1
    17     8     9    1
    18     8    36    1
    19     8    37    1
    20     9    26    1
    21     9    10    2
    22    10    11    1
    23    10    38    1
    24    11    12    1
    25    11    25    1
    26    12    24    1
    27    12    13    1
    28    12    39    1
    29    13    14    1
    30    13    40    1
    31    13    41    1
    32    14    15   am
    33    14    24    1
    34    15    16    2
    35    15    17    1
    36    17    22   ar
    37    17    18   ar
    38    18    19   ar
    39    19    20   ar
    40    19    42    1
    41    20    21   ar
    42    20    43    1
    43    21    22   ar
    44    22    23    1
    45    23    44    1
    46    23    45    1
    47    24    46    1
    48    24    47    1
    49    25    26    2
@<TRIPOS>SUBSTRUCTURE
     1 ZINC001105194920        1 TEMP              0 ****  ****    0 ROOT


##########                                Name:    ZINC000002634904
##########                DOCK_Rotatable_Bonds:                   7
##########                         Heavy_Atoms:                  31
##########                    Molecular_Weight:             423.498
##########                DOCK_Rotatable_Bonds:                   7
##########                       Formal_Charge:        -7.45058e-08
##########                     HBond_Acceptors:                   7
##########                        HBond_Donors:                   1
##########                         Heavy_Atoms:                  31
##########                          Grid_Score:          -31.074785
##########                     Grid_vdw_energy:          -30.475330
##########                      Grid_es_energy:           -0.599455
##########           Internal_energy_repulsive:            6.932848

@<TRIPOS>MOLECULE
ZINC000002634904
 48 51 1 0 0
SMALL
USER_CHARGES


@<TRIPOS>ATOM
      1 N1          5.2925   -0.2789   46.8243 N.1     1  ZINC000002634904   -0.4100
      2 C2          4.3758    0.0685   47.3982 C.1     1  ZINC000002634904    0.2500
      3 C3          3.2202    0.5065   48.1217 C.ar    1  ZINC000002634904   -0.0400
      4 C4          2.0705    0.9024   47.4324 C.ar    1  ZINC000002634904   -0.0500
      5 C5          0.9612    1.3230   48.1314 C.ar    1  ZINC000002634904   -0.1400
      6 C6          0.9839    1.3542   49.5219 C.ar    1  ZINC000002634904    0.1700
      7 N7         -0.1422    1.7810   50.2269 N.am    1  ZINC000002634904   -0.6700
      8 C8         -0.0738    2.8790   51.0053 C.2     1  ZINC000002634904    0.5400
      9 O9          0.9665    3.4962   51.0932 O.2     1  ZINC000002634904   -0.5000
     10 C10        -1.2899    3.3399   51.7667 C.3     1  ZINC000002634904   -0.1700
     11 S11        -2.7845    2.8376   50.8778 S.3     1  ZINC000002634904    0.1300
     12 C12        -3.9703    2.9684   52.1744 C.ar    1  ZINC000002634904    0.2100
     13 N13        -3.6846    3.6923   53.2509 N.ar    1  ZINC000002634904   -0.2900
     14 N14        -4.5198    3.8160   54.2221 N.ar    1  ZINC000002634904   -0.1600
     15 C15        -5.7040    3.2152   54.1725 C.ar    1  ZINC000002634904    0.0600
     16 C16        -6.6671    3.3568   55.2895 C.ar    1  ZINC000002634904   -0.0500
     17 C17        -7.3336    4.5651   55.4902 C.ar    1  ZINC000002634904   -0.0800
     18 C18        -8.2294    4.6909   56.5323 C.ar    1  ZINC000002634904   -0.1200
     19 C19        -8.4664    3.6215   57.3772 C.ar    1  ZINC000002634904   -0.1000
     20 C20        -7.8081    2.4204   57.1832 C.ar    1  ZINC000002634904   -0.1200
     21 C21        -6.9147    2.2805   56.1408 C.ar    1  ZINC000002634904   -0.0800
     22 C22        -6.0296    2.4416   53.0403 C.ar    1  ZINC000002634904    0.2300
     23 C23        -7.3386    1.7545   52.9433 C.ar    1  ZINC000002634904   -0.0700
     24 C24        -7.3943    0.3643   52.8490 C.ar    1  ZINC000002634904   -0.0700
     25 C25        -8.6164   -0.2700   52.7594 C.ar    1  ZINC000002634904   -0.1200
     26 C26        -9.7850    0.4704   52.7630 C.ar    1  ZINC000002634904   -0.0900
     27 C27        -9.7362    1.8498   52.8559 C.ar    1  ZINC000002634904   -0.1200
     28 C28        -8.5202    2.4950   52.9518 C.ar    1  ZINC000002634904   -0.0700
     29 N29        -5.1368    2.3465   52.0578 N.ar    1  ZINC000002634904   -0.4400
     30 C30         2.1261    0.9605   50.2113 C.ar    1  ZINC000002634904   -0.1200
     31 C31         3.2373    0.5337   49.5191 C.ar    1  ZINC000002634904   -0.0500
     32 H32         2.0525    0.8788   46.3528 H       1  ZINC000002634904    0.1400
     33 H33         0.0727    1.6294   47.5994 H       1  ZINC000002634904    0.1400
     34 H34        -0.9743    1.2874   50.1565 H       1  ZINC000002634904    0.4200
     35 H35        -1.2892    2.8899   52.7595 H       1  ZINC000002634904    0.1300
     36 H36        -1.2703    4.4257   51.8600 H       1  ZINC000002634904    0.1300
     37 H37        -7.1489    5.4008   54.8316 H       1  ZINC000002634904    0.1300
     38 H38        -8.7462    5.6261   56.6886 H       1  ZINC000002634904    0.1300
     39 H39        -9.1678    3.7249   58.1919 H       1  ZINC000002634904    0.1300
     40 H40        -7.9971    1.5889   57.8461 H       1  ZINC000002634904    0.1300
     41 H41        -6.4017    1.3421   55.9901 H       1  ZINC000002634904    0.1200
     42 H42        -6.4826   -0.2147   52.8457 H       1  ZINC000002634904    0.1300
     43 H43        -8.6607   -1.3466   52.6860 H       1  ZINC000002634904    0.1300
     44 H44       -10.7392   -0.0305   52.6927 H       1  ZINC000002634904    0.1300
     45 H45       -10.6519    2.4225   52.8579 H       1  ZINC000002634904    0.1300
     46 H46        -8.4834    3.5720   53.0242 H       1  ZINC000002634904    0.1300
     47 H47         2.1399    0.9857   51.2909 H       1  ZINC000002634904    0.1500
     48 H48         4.1236    0.2278   50.0550 H       1  ZINC000002634904    0.1400
@<TRIPOS>BOND
     1     1     2    3
     2     2     3    1
     3     3    31   ar
     4     3     4   ar
     5     4     5   ar
     6     4    32    1
     7     5     6   ar
     8     5    33    1
     9     6     7    1
    10     6    30   ar
    11     7     8   am
    12     7    34    1
    13     8     9    2
    14     8    10    1
    15    10    11    1
    16    10    35    1
    17    10    36    1
    18    11    12    1
    19    12    29   ar
    20    12    13   ar
    21    13    14   ar
    22    14    15   ar
    23    15    16    1
    24    15    22   ar
    25    16    21   ar
    26    16    17   ar
    27    17    18   ar
    28    17    37    1
    29    18    19   ar
    30    18    38    1
    31    19    20   ar
    32    19    39    1
    33    20    21   ar
    34    20    40    1
    35    21    41    1
    36    22    23    1
    37    22    29   ar
    38    23    28   ar
    39    23    24   ar
    40    24    25   ar
    41    24    42    1
    42    25    26   ar
    43    25    43    1
    44    26    27   ar
    45    26    44    1
    46    27    28   ar
    47    27    45    1
    48    28    46    1
    49    30    31   ar
    50    30    47    1
    51    31    48    1
@<TRIPOS>SUBSTRUCTURE
     1 ZINC000002634904        1 TEMP              0 ****  ****    0 ROOT


##########                                Name:    ZINC000502834785
##########                DOCK_Rotatable_Bonds:                   9
##########                         Heavy_Atoms:                  26
##########                    Molecular_Weight:             356.468
##########                DOCK_Rotatable_Bonds:                   9
##########                       Formal_Charge:           0.0199998
##########                     HBond_Acceptors:                   6
##########                        HBond_Donors:                   2
##########                         Heavy_Atoms:                  26
##########                          Grid_Score:          -31.069265
##########                     Grid_vdw_energy:          -28.710592
##########                      Grid_es_energy:           -2.358674
##########           Internal_energy_repulsive:           16.637896

@<TRIPOS>MOLECULE
ZINC000502834785
 54 56 1 0 0
SMALL
USER_CHARGES


@<TRIPOS>ATOM
      1 C1        -10.6908   -1.9307   56.0618 C.3     1  ZINC000502834785   -0.1800
      2 C2        -11.1581   -0.8166   55.1231 C.3     1  ZINC000502834785    0.0800
      3 C3        -12.0901    0.1312   55.8808 C.3     1  ZINC000502834785   -0.1500
      4 O4        -10.0245   -0.0892   54.6457 O.3     1  ZINC000502834785   -0.3800
      5 C5         -9.7622   -0.2703   53.2527 C.3     1  ZINC000502834785    0.1000
      6 C6         -8.5704    0.5612   52.8537 C.ar    1  ZINC000502834785   -0.0800
      7 C7         -7.4526   -0.0473   52.3141 C.ar    1  ZINC000502834785   -0.1000
      8 C8         -6.3594    0.7154   51.9481 C.ar    1  ZINC000502834785   -0.1000
      9 C9         -6.3842    2.0866   52.1212 C.ar    1  ZINC000502834785   -0.1000
     10 C10        -5.1921    2.9181   51.7226 C.3     1  ZINC000502834785    0.1600
     11 N11        -4.1883    2.8752   52.7887 N.am    1  ZINC000502834785   -0.7300
     12 C12        -3.5458    4.0018   53.1551 C.2     1  ZINC000502834785    0.5100
     13 O13        -3.7997    5.0515   52.6032 O.2     1  ZINC000502834785   -0.5200
     14 C14        -2.5119    3.9572   54.2507 C.3     1  ZINC000502834785    0.0300
     15 N15        -1.2999    4.6601   53.8090 N.3     1  ZINC000502834785   -0.5000
     16 C16        -0.7805    4.0816   52.5515 C.3     1  ZINC000502834785    0.0500
     17 C17         0.7584    4.2234   52.6568 C.3     1  ZINC000502834785   -0.1300
     18 C18         0.9959    3.9490   54.1652 C.3     1  ZINC000502834785   -0.1300
     19 C19        -0.2420    4.5837   54.8331 C.3     1  ZINC000502834785    0.1500
     20 H20         0.0015    5.5844   55.1902 H       1  ZINC000502834785    0.1100
     21 C21        -0.6995    3.7261   55.9847 C.2     1  ZINC000502834785    0.0600
     22 N22        -0.4460    2.4519   56.1404 N.2     1  ZINC000502834785   -0.2900
     23 N23        -1.0462    2.0289   57.3334 N.pl3   1  ZINC000502834785   -0.4800
     24 C24        -1.6668    3.0921   57.8859 C.2     1  ZINC000502834785    0.0600
     25 C25        -1.4634    4.1559   57.0746 C.2     1  ZINC000502834785   -0.2600
     26 C26        -7.5024    2.6952   52.6595 C.ar    1  ZINC000502834785   -0.1000
     27 C27        -8.5972    1.9330   53.0220 C.ar    1  ZINC000502834785   -0.1000
     28 H28       -10.0268   -2.6059   55.5220 H       1  ZINC000502834785    0.0600
     29 H29       -10.1572   -1.4944   56.9062 H       1  ZINC000502834785    0.0600
     30 H30       -11.5555   -2.4856   56.4260 H       1  ZINC000502834785    0.0700
     31 H31       -11.6918   -1.2528   54.2787 H       1  ZINC000502834785    0.0600
     32 H32       -11.5564    0.5675   56.7251 H       1  ZINC000502834785    0.0600
     33 H33       -12.4230    0.9249   55.2120 H       1  ZINC000502834785    0.0600
     34 H34       -12.9548   -0.4236   56.2448 H       1  ZINC000502834785    0.0700
     35 H35        -9.5538   -1.3220   53.0559 H       1  ZINC000502834785    0.0600
     36 H36       -10.6326    0.0417   52.6755 H       1  ZINC000502834785    0.0600
     37 H37        -7.4333   -1.1186   52.1788 H       1  ZINC000502834785    0.1300
     38 H38        -5.4858    0.2400   51.5272 H       1  ZINC000502834785    0.1300
     39 H39        -4.7627    2.5202   50.8031 H       1  ZINC000502834785    0.0800
     40 H40        -5.5061    3.9492   51.5605 H       1  ZINC000502834785    0.0800
     41 H41        -3.9861    2.0358   53.2310 H       1  ZINC000502834785    0.4000
     42 H42        -2.9076    4.4413   55.1436 H       1  ZINC000502834785    0.1000
     43 H43        -2.2678    2.9196   54.4778 H       1  ZINC000502834785    0.0800
     44 H44        -1.0603    3.0311   52.4731 H       1  ZINC000502834785    0.0400
     45 H45        -1.1552    4.6400   51.6936 H       1  ZINC000502834785    0.1000
     46 H46         1.2623    3.4788   52.0404 H       1  ZINC000502834785    0.0800
     47 H47         1.0771    5.2306   52.3884 H       1  ZINC000502834785    0.0800
     48 H48         1.0325    2.8773   54.3609 H       1  ZINC000502834785    0.0800
     49 H49         1.9098    4.4354   54.5062 H       1  ZINC000502834785    0.0800
     50 H50        -1.0200    1.1304   57.6980 H       1  ZINC000502834785    0.4400
     51 H51        -2.2227    3.0946   58.8118 H       1  ZINC000502834785    0.1800
     52 H52        -1.8312    5.1583   57.2370 H       1  ZINC000502834785    0.1500
     53 H53        -7.5220    3.7667   52.7944 H       1  ZINC000502834785    0.1300
     54 H54        -9.4709    2.4085   53.4425 H       1  ZINC000502834785    0.1200
@<TRIPOS>BOND
     1     1     2    1
     2     1    28    1
     3     1    29    1
     4     1    30    1
     5     2     3    1
     6     2     4    1
     7     2    31    1
     8     3    32    1
     9     3    33    1
    10     3    34    1
    11     4     5    1
    12     5     6    1
    13     5    35    1
    14     5    36    1
    15     6    27   ar
    16     6     7   ar
    17     7     8   ar
    18     7    37    1
    19     8     9   ar
    20     8    38    1
    21     9    10    1
    22     9    26   ar
    23    10    11    1
    24    10    39    1
    25    10    40    1
    26    11    12   am
    27    11    41    1
    28    12    13    2
    29    12    14    1
    30    14    15    1
    31    14    42    1
    32    14    43    1
    33    15    19    1
    34    15    16    1
    35    16    17    1
    36    16    44    1
    37    16    45    1
    38    17    18    1
    39    17    46    1
    40    17    47    1
    41    18    19    1
    42    18    48    1
    43    18    49    1
    44    19    20    1
    45    19    21    1
    46    21    25    1
    47    21    22    2
    48    22    23    1
    49    23    24    1
    50    23    50    1
    51    24    25    2
    52    24    51    1
    53    25    52    1
    54    26    27   ar
    55    26    53    1
    56    27    54    1
@<TRIPOS>SUBSTRUCTURE
     1 ZINC000502834785        1 TEMP              0 ****  ****    0 ROOT


##########                                Name:    ZINC000624498741
##########                DOCK_Rotatable_Bonds:                   7
##########                         Heavy_Atoms:                  27
##########                    Molecular_Weight:             379.339
##########                DOCK_Rotatable_Bonds:                   7
##########                       Formal_Charge:           0.0300003
##########                     HBond_Acceptors:                   9
##########                        HBond_Donors:                   0
##########                         Heavy_Atoms:                  27
##########                          Grid_Score:          -31.067648
##########                     Grid_vdw_energy:          -30.452087
##########                      Grid_es_energy:           -0.615561
##########           Internal_energy_repulsive:           10.028319

@<TRIPOS>MOLECULE
ZINC000624498741
 43 45 1 0 0
SMALL
USER_CHARGES


@<TRIPOS>ATOM
      1 C1          1.3566    1.4747   47.9315 C.3     1  ZINC000624498741   -0.1100
      2 C2          0.7605    1.9967   49.2135 C.ar    1  ZINC000624498741   -0.0900
      3 C3         -0.6011    1.9383   49.4127 C.ar    1  ZINC000624498741   -0.0400
      4 C4         -1.1527    2.4221   50.6016 C.ar    1  ZINC000624498741   -0.0500
      5 C5         -2.6118    2.3610   50.8194 C.2     1  ZINC000624498741    0.2300
      6 N6         -3.3800    1.2891   50.7259 N.2     1  ZINC000624498741   -0.4700
      7 C7         -4.6224    1.7116   51.0072 C.2     1  ZINC000624498741    0.1800
      8 C8         -5.8663    0.8615   51.0342 C.3     1  ZINC000624498741   -0.0300
      9 C9         -6.7447    1.2803   52.2148 C.3     1  ZINC000624498741   -0.1300
     10 C10        -7.5966    0.0913   52.6638 C.3     1  ZINC000624498741    0.0900
     11 N11        -8.5656    0.5364   53.6684 N.am    1  ZINC000624498741   -0.5000
     12 C12        -8.1340    1.2117   54.7642 C.2     1  ZINC000624498741    0.1300
     13 C13        -9.0102    1.6327   55.7060 C.2     1  ZINC000624498741   -0.2300
     14 C14       -10.3794    1.3724   55.5544 C.2     1  ZINC000624498741   -0.0200
     15 C15       -10.8112    0.6941   54.4525 C.2     1  ZINC000624498741   -0.2400
     16 C16        -9.8749    0.2759   53.4916 C.2     1  ZINC000624498741    0.5100
     17 O17       -10.2475   -0.3318   52.5008 O.2     1  ZINC000624498741   -0.5500
     18 N18        -4.5585    2.9870   51.2530 N.2     1  ZINC000624498741   -0.3700
     19 O19        -3.4158    3.3816   51.1566 O.3     1  ZINC000624498741    0.0900
     20 C20        -0.3202    2.9633   51.5838 C.ar    1  ZINC000624498741   -0.0200
     21 C21         1.0409    3.0181   51.3768 C.ar    1  ZINC000624498741   -0.1900
     22 C22         1.5859    2.5311   50.1954 C.ar    1  ZINC000624498741    0.1300
     23 O23         2.9277    2.5870   49.9952 O.3     1  ZINC000624498741   -0.3000
     24 C24         3.7150    1.5485   50.5816 C.3     1  ZINC000624498741    0.6000
     25 F25         3.5651    1.5783   51.9721 F       1  ZINC000624498741   -0.1600
     26 F26         3.2894    0.3084   50.0931 F       1  ZINC000624498741   -0.1300
     27 F27         5.0610    1.7419   50.2534 F       1  ZINC000624498741   -0.1600
     28 H28         1.5980    0.4180   48.0470 H       1  ZINC000624498741    0.0800
     29 H29         0.6384    1.5968   47.1207 H       1  ZINC000624498741    0.0800
     30 H30         2.2645    2.0316   47.6998 H       1  ZINC000624498741    0.0800
     31 H31        -1.2416    1.5194   48.6507 H       1  ZINC000624498741    0.1500
     32 H32        -6.4190    0.9965   50.1044 H       1  ZINC000624498741    0.1000
     33 H33        -5.5879   -0.1868   51.1424 H       1  ZINC000624498741    0.1000
     34 H34        -6.1123    1.6065   53.0406 H       1  ZINC000624498741    0.0800
     35 H35        -7.3961    2.0996   51.9105 H       1  ZINC000624498741    0.0800
     36 H36        -8.1267   -0.3206   51.8052 H       1  ZINC000624498741    0.1100
     37 H37        -6.9523   -0.6750   53.0950 H       1  ZINC000624498741    0.1000
     38 H38        -7.0804    1.4150   54.8858 H       1  ZINC000624498741    0.1600
     39 H39        -8.6548    2.1684   56.5739 H       1  ZINC000624498741    0.1500
     40 H40       -11.0845    1.7049   56.3019 H       1  ZINC000624498741    0.1400
     41 H41       -11.8620    0.4841   54.3181 H       1  ZINC000624498741    0.1500
     42 H42        -0.7427    3.3388   52.5041 H       1  ZINC000624498741    0.1500
     43 H43         1.6854    3.4368   52.1357 H       1  ZINC000624498741    0.1500
@<TRIPOS>BOND
     1     1     2    1
     2     1    28    1
     3     1    29    1
     4     1    30    1
     5     2    22   ar
     6     2     3   ar
     7     3     4   ar
     8     3    31    1
     9     4     5    1
    10     4    20   ar
    11     5    19    1
    12     5     6    2
    13     6     7    1
    14     7     8    1
    15     7    18    2
    16     8     9    1
    17     8    32    1
    18     8    33    1
    19     9    10    1
    20     9    34    1
    21     9    35    1
    22    10    11    1
    23    10    36    1
    24    10    37    1
    25    11    16   am
    26    11    12    1
    27    12    13    2
    28    12    38    1
    29    13    14    1
    30    13    39    1
    31    14    15    2
    32    14    40    1
    33    15    16    1
    34    15    41    1
    35    16    17    2
    36    18    19    1
    37    20    21   ar
    38    20    42    1
    39    21    22   ar
    40    21    43    1
    41    22    23    1
    42    23    24    1
    43    24    25    1
    44    24    26    1
    45    24    27    1
@<TRIPOS>SUBSTRUCTURE
     1 ZINC000624498741        1 TEMP              0 ****  ****    0 ROOT


##########                                Name:    ZINC000787750060
##########                DOCK_Rotatable_Bonds:                   6
##########                         Heavy_Atoms:                  24
##########                    Molecular_Weight:             347.438
##########                DOCK_Rotatable_Bonds:                   6
##########                       Formal_Charge:           0.0200003
##########                     HBond_Acceptors:                   7
##########                        HBond_Donors:                   2
##########                         Heavy_Atoms:                  24
##########                          Grid_Score:          -31.038763
##########                     Grid_vdw_energy:          -30.086823
##########                      Grid_es_energy:           -0.951941
##########           Internal_energy_repulsive:           10.966106

@<TRIPOS>MOLECULE
ZINC000787750060
 45 47 1 0 0
SMALL
USER_CHARGES


@<TRIPOS>ATOM
      1 C1          2.4202    0.3141   47.5010 C.3     1  ZINC000787750060   -0.1200
      2 C2          1.4608    0.9799   48.4537 C.ar    1  ZINC000787750060   -0.0400
      3 C3          0.1097    1.0227   48.1522 C.ar    1  ZINC000787750060   -0.1300
      4 C4         -0.7767    1.6291   49.0161 C.ar    1  ZINC000787750060   -0.0700
      5 C5         -0.3116    2.2030   50.2014 C.ar    1  ZINC000787750060   -0.1700
      6 C6         -1.2550    2.8533   51.1310 C.2     1  ZINC000787750060    0.5600
      7 O7         -0.8571    3.7005   51.9071 O.2     1  ZINC000787750060   -0.5200
      8 N8         -2.5578    2.5082   51.1197 N.am    1  ZINC000787750060   -0.7300
      9 C9         -3.4941    3.1527   52.0439 C.3     1  ZINC000787750060    0.2100
     10 C10        -4.7997    2.3998   52.0423 C.2     1  ZINC000787750060   -0.2800
     11 C11        -5.0347    1.2418   51.4248 C.2     1  ZINC000787750060    0.0900
     12 N12        -6.2638    0.7799   51.5723 N.2     1  ZINC000787750060   -0.5200
     13 C13        -7.0769    1.4950   52.2860 C.2     1  ZINC000787750060    0.2300
     14 N14        -8.3984    1.1698   52.5490 N.3     1  ZINC000787750060   -0.4500
     15 C15        -9.2006    2.3781   52.7890 C.3     1  ZINC000787750060    0.0200
     16 C16       -10.6608    1.9781   53.0154 C.3     1  ZINC000787750060    0.0600
     17 O17       -10.7335    1.0547   54.1052 O.3     1  ZINC000787750060   -0.3800
     18 C18        -9.9643   -0.1341   53.9048 C.3     1  ZINC000787750060    0.0600
     19 C19        -8.4968    0.2446   53.6873 C.3     1  ZINC000787750060    0.0300
     20 S20        -6.2788    2.8928   52.8624 S.3     1  ZINC000787750060    0.1700
     21 C21         1.0566    2.1573   50.5031 C.ar    1  ZINC000787750060    0.1700
     22 O22         1.5200    2.7114   51.6514 O.3     1  ZINC000787750060   -0.4700
     23 C23         1.9334    1.5390   49.6248 C.ar    1  ZINC000787750060   -0.1200
     24 C24         3.4054    1.4864   49.9433 C.3     1  ZINC000787750060   -0.1200
     25 H25         2.5108   -0.7419   47.7556 H       1  ZINC000787750060    0.0800
     26 H26         2.0463    0.4113   46.4818 H       1  ZINC000787750060    0.0700
     27 H27         3.3973    0.7912   47.5768 H       1  ZINC000787750060    0.0800
     28 H28        -0.2509    0.5792   47.2359 H       1  ZINC000787750060    0.1300
     29 H29        -1.8293    1.6607   48.7766 H       1  ZINC000787750060    0.1300
     30 H30        -2.8754    1.8332   50.4998 H       1  ZINC000787750060    0.4000
     31 H31        -3.0734    3.1481   53.0494 H       1  ZINC000787750060    0.0900
     32 H32        -3.6675    4.1811   51.7273 H       1  ZINC000787750060    0.0800
     33 H33        -4.2814    0.7232   50.8503 H       1  ZINC000787750060    0.1800
     34 H34        -8.8240    2.8957   53.6712 H       1  ZINC000787750060    0.0600
     35 H35        -9.1338    3.0372   51.9234 H       1  ZINC000787750060    0.1000
     36 H36       -11.2491    2.8652   53.2502 H       1  ZINC000787750060    0.1100
     37 H37       -11.0537    1.5083   52.1137 H       1  ZINC000787750060    0.0700
     38 H38       -10.0485   -0.7746   54.7827 H       1  ZINC000787750060    0.1100
     39 H39       -10.3367   -0.6653   53.0288 H       1  ZINC000787750060    0.0600
     40 H40        -7.9164   -0.6538   53.4774 H       1  ZINC000787750060    0.1000
     41 H41        -8.1090    0.7281   54.5839 H       1  ZINC000787750060    0.0700
     42 H42         0.8492    2.8048   52.3417 H       1  ZINC000787750060    0.4000
     43 H43         3.6223    0.5812   50.5106 H       1  ZINC000787750060    0.0700
     44 H44         3.9778    1.4797   49.0157 H       1  ZINC000787750060    0.0700
     45 H45         3.6808    2.3601   50.5339 H       1  ZINC000787750060    0.0800
@<TRIPOS>BOND
     1     1     2    1
     2     1    25    1
     3     1    26    1
     4     1    27    1
     5     2    23   ar
     6     2     3   ar
     7     3     4   ar
     8     3    28    1
     9     4     5   ar
    10     4    29    1
    11     5     6    1
    12     5    21   ar
    13     6     7    2
    14     6     8   am
    15     8     9    1
    16     8    30    1
    17     9    10    1
    18     9    31    1
    19     9    32    1
    20    10    20    1
    21    10    11    2
    22    11    12    1
    23    11    33    1
    24    12    13    2
    25    13    14    1
    26    13    20    1
    27    14    19    1
    28    14    15    1
    29    15    16    1
    30    15    34    1
    31    15    35    1
    32    16    17    1
    33    16    36    1
    34    16    37    1
    35    17    18    1
    36    18    19    1
    37    18    38    1
    38    18    39    1
    39    19    40    1
    40    19    41    1
    41    21    22    1
    42    21    23   ar
    43    22    42    1
    44    23    24    1
    45    24    43    1
    46    24    44    1
    47    24    45    1
@<TRIPOS>SUBSTRUCTURE
     1 ZINC000787750060        1 TEMP              0 ****  ****    0 ROOT


##########                                Name:    ZINC000081577146
##########                DOCK_Rotatable_Bonds:                   4
##########                         Heavy_Atoms:                  25
##########                    Molecular_Weight:             355.464
##########                DOCK_Rotatable_Bonds:                   4
##########                       Formal_Charge:                0.02
##########                     HBond_Acceptors:                   7
##########                        HBond_Donors:                   0
##########                         Heavy_Atoms:                  25
##########                          Grid_Score:          -31.035946
##########                     Grid_vdw_energy:          -31.371038
##########                      Grid_es_energy:            0.335092
##########           Internal_energy_repulsive:           18.915552

@<TRIPOS>MOLECULE
ZINC000081577146
 46 49 1 0 0
SMALL
USER_CHARGES


@<TRIPOS>ATOM
      1 C1        -11.4774    1.1083   54.9219 C.3     1  ZINC000081577146   -0.0700
      2 C2        -10.3063    0.6125   54.1131 C.2     1  ZINC000081577146    0.2900
      3 N3        -10.1357   -0.6576   53.8878 N.2     1  ZINC000081577146   -0.4800
      4 S4         -8.7206   -0.7749   52.9538 S.3     1  ZINC000081577146    0.1900
      5 C5         -8.4367    0.9243   52.9209 C.2     1  ZINC000081577146    0.2700
      6 N6         -7.3958    1.5922   52.3014 N.3     1  ZINC000081577146   -0.4300
      7 C7         -6.3620    0.6514   51.8482 C.3     1  ZINC000081577146    0.0700
      8 C8         -5.2697    1.4193   51.1001 C.3     1  ZINC000081577146    0.0500
      9 N9         -4.6960    2.4398   51.9883 N.3     1  ZINC000081577146   -0.5200
     10 C10        -3.5907    3.1491   51.3304 C.3     1  ZINC000081577146    0.1900
     11 H11        -3.9563    4.0901   50.9194 H       1  ZINC000081577146    0.0700
     12 C12        -3.0295    2.2830   50.2009 C.3     1  ZINC000081577146   -0.1500
     13 C13        -2.5039    3.4289   52.3362 C.2     1  ZINC000081577146    0.1900
     14 N14        -1.4122    4.1021   52.1031 N.2     1  ZINC000081577146   -0.4500
     15 C15        -0.6819    4.1487   53.2273 C.2     1  ZINC000081577146   -0.0200
     16 C16        -1.3641    3.4715   54.1861 C.2     1  ZINC000081577146    0.0000
     17 C17        -0.9409    3.2621   55.5869 C.ar    1  ZINC000081577146   -0.0200
     18 C18         0.3171    3.6931   56.0109 C.ar    1  ZINC000081577146   -0.1000
     19 C19         0.7057    3.4950   57.3198 C.ar    1  ZINC000081577146   -0.1200
     20 C20        -0.1482    2.8704   58.2112 C.ar    1  ZINC000081577146   -0.1100
     21 C21        -1.3964    2.4404   57.7972 C.ar    1  ZINC000081577146   -0.1100
     22 C22        -1.7998    2.6378   56.4928 C.ar    1  ZINC000081577146   -0.0900
     23 O23        -2.5069    3.0306   53.6156 O.3     1  ZINC000081577146   -0.2000
     24 C24        -5.7299    3.3808   52.4416 C.3     1  ZINC000081577146    0.0600
     25 C25        -6.8222    2.6128   53.1897 C.3     1  ZINC000081577146    0.0500
     26 N26        -9.4289    1.4487   53.6088 N.2     1  ZINC000081577146   -0.5400
     27 H27       -12.3214    1.3000   54.2593 H       1  ZINC000081577146    0.0900
     28 H28       -11.7568    0.3535   55.6570 H       1  ZINC000081577146    0.0900
     29 H29       -11.2010    2.0298   55.4342 H       1  ZINC000081577146    0.0900
     30 H30        -5.9262    0.1468   52.7106 H       1  ZINC000081577146    0.0700
     31 H31        -6.8089   -0.0867   51.1822 H       1  ZINC000081577146    0.1100
     32 H32        -4.4874    0.7274   50.7881 H       1  ZINC000081577146    0.1000
     33 H33        -5.7003    1.9015   50.2225 H       1  ZINC000081577146    0.0600
     34 H34        -2.6638    1.3421   50.6119 H       1  ZINC000081577146    0.0800
     35 H35        -3.8155    2.0807   49.4733 H       1  ZINC000081577146    0.0800
     36 H36        -2.2093    2.8094   49.7127 H       1  ZINC000081577146    0.0700
     37 H37         0.2744    4.6360   53.3478 H       1  ZINC000081577146    0.1900
     38 H38         0.9849    4.1803   55.3159 H       1  ZINC000081577146    0.1300
     39 H39         1.6790    3.8281   57.6492 H       1  ZINC000081577146    0.1300
     40 H40         0.1610    2.7175   59.2346 H       1  ZINC000081577146    0.1300
     41 H41        -2.0580    1.9528   58.4979 H       1  ZINC000081577146    0.1300
     42 H42        -2.7745    2.3020   56.1710 H       1  ZINC000081577146    0.1300
     43 H43        -5.2831    4.1188   53.1076 H       1  ZINC000081577146    0.0900
     44 H44        -6.1658    3.8852   51.5792 H       1  ZINC000081577146    0.0500
     45 H45        -7.6045    3.3047   53.5017 H       1  ZINC000081577146    0.1000
     46 H46        -6.3916    2.1306   54.0672 H       1  ZINC000081577146    0.0800
@<TRIPOS>BOND
     1     1     2    1
     2     1    27    1
     3     1    28    1
     4     1    29    1
     5     2    26    1
     6     2     3    2
     7     3     4    1
     8     4     5    1
     9     5     6    1
    10     5    26    2
    11     6    25    1
    12     6     7    1
    13     7     8    1
    14     7    30    1
    15     7    31    1
    16     8     9    1
    17     8    32    1
    18     8    33    1
    19     9    10    1
    20     9    24    1
    21    10    11    1
    22    10    12    1
    23    10    13    1
    24    12    34    1
    25    12    35    1
    26    12    36    1
    27    13    23    1
    28    13    14    2
    29    14    15    1
    30    15    16    2
    31    15    37    1
    32    16    17    1
    33    16    23    1
    34    17    22   ar
    35    17    18   ar
    36    18    19   ar
    37    18    38    1
    38    19    20   ar
    39    19    39    1
    40    20    21   ar
    41    20    40    1
    42    21    22   ar
    43    21    41    1
    44    22    42    1
    45    24    25    1
    46    24    43    1
    47    24    44    1
    48    25    45    1
    49    25    46    1
@<TRIPOS>SUBSTRUCTURE
     1 ZINC000081577146        1 TEMP              0 ****  ****    0 ROOT


##########                                Name:    ZINC000501032137
##########                DOCK_Rotatable_Bonds:                  10
##########                         Heavy_Atoms:                  25
##########                    Molecular_Weight:             407.307
##########                DOCK_Rotatable_Bonds:                  10
##########                       Formal_Charge:           0.0099998
##########                     HBond_Acceptors:                   5
##########                        HBond_Donors:                   1
##########                         Heavy_Atoms:                  25
##########                          Grid_Score:          -30.972885
##########                     Grid_vdw_energy:          -31.009981
##########                      Grid_es_energy:            0.037095
##########           Internal_energy_repulsive:            7.588949

@<TRIPOS>MOLECULE
ZINC000501032137
 48 50 1 0 0
SMALL
USER_CHARGES


@<TRIPOS>ATOM
      1 C1         -4.5637    6.0665   56.6025 C.3     1  ZINC000501032137   -0.1500
      2 C2         -3.7054    4.8462   56.2629 C.3     1  ZINC000501032137   -0.1200
      3 C3         -4.3819    3.5822   56.7971 C.3     1  ZINC000501032137    0.0600
      4 O4         -5.5947    3.3508   56.0778 O.3     1  ZINC000501032137   -0.3800
      5 C5         -6.7167    3.0528   56.9111 C.3     1  ZINC000501032137    0.0500
      6 C6         -7.5212    1.9076   56.2927 C.3     1  ZINC000501032137    0.1600
      7 H7         -6.8555    1.0727   56.0740 H       1  ZINC000501032137    0.1000
      8 C8         -8.1796    2.3878   54.9978 C.3     1  ZINC000501032137   -0.0900
      9 C9         -7.5784    1.6543   53.8267 C.ar    1  ZINC000501032137   -0.0600
     10 C10        -8.0005    0.3736   53.5231 C.ar    1  ZINC000501032137   -0.0900
     11 C11        -7.4493   -0.2999   52.4487 C.ar    1  ZINC000501032137   -0.1100
     12 C12        -6.4761    0.3072   51.6779 C.ar    1  ZINC000501032137   -0.0900
     13 C13        -6.0534    1.5890   51.9815 C.ar    1  ZINC000501032137   -0.0800
     14 Br14       -4.7216    2.4203   50.9272 Br      1  ZINC000501032137   -0.0600
     15 C15        -6.6090    2.2645   53.0528 C.ar    1  ZINC000501032137   -0.0800
     16 N16        -8.5558    1.4733   57.2346 N.am    1  ZINC000501032137   -0.7100
     17 C17        -8.2344    0.6625   58.2621 C.2     1  ZINC000501032137    0.6100
     18 O18        -7.0852    0.2925   58.4081 O.2     1  ZINC000501032137   -0.5200
     19 C19        -9.2759    0.2242   59.2089 C.2     1  ZINC000501032137   -0.0800
     20 C20       -10.3358   -0.5821   58.9286 C.2     1  ZINC000501032137    0.0800
     21 C21       -10.6676   -1.1955   57.5927 C.3     1  ZINC000501032137   -0.0800
     22 C22       -10.2979   -2.6646   57.3786 C.3     1  ZINC000501032137   -0.1700
     23 C23       -11.7633   -2.2628   57.5580 C.3     1  ZINC000501032137   -0.1500
     24 O24       -11.0293   -0.7274   60.0690 O.3     1  ZINC000501032137   -0.2000
     25 C25       -10.4097   -0.0261   61.0288 C.2     1  ZINC000501032137    0.1800
     26 N26        -9.3550    0.5448   60.5288 N.2     1  ZINC000501032137   -0.4600
     27 H27        -5.5464    5.9586   56.1433 H       1  ZINC000501032137    0.0600
     28 H28        -4.6745    6.1431   57.6841 H       1  ZINC000501032137    0.0600
     29 H29        -4.0818    6.9670   56.2219 H       1  ZINC000501032137    0.0600
     30 H30        -3.5946    4.7697   55.1813 H       1  ZINC000501032137    0.0700
     31 H31        -2.7227    4.9542   56.7220 H       1  ZINC000501032137    0.0700
     32 H32        -3.7143    2.7304   56.6674 H       1  ZINC000501032137    0.0500
     33 H33        -4.6062    3.7101   57.8561 H       1  ZINC000501032137    0.0500
     34 H34        -6.3667    2.7580   57.9003 H       1  ZINC000501032137    0.0700
     35 H35        -7.3497    3.9360   56.9978 H       1  ZINC000501032137    0.0600
     36 H36        -9.2506    2.1898   55.0396 H       1  ZINC000501032137    0.0900
     37 H37        -8.0124    3.4585   54.8806 H       1  ZINC000501032137    0.0800
     38 H38        -8.7608   -0.1013   54.1254 H       1  ZINC000501032137    0.1200
     39 H39        -7.7792   -1.3007   52.2120 H       1  ZINC000501032137    0.1300
     40 H40        -6.0454   -0.2191   50.8389 H       1  ZINC000501032137    0.1300
     41 H41        -6.2795    3.2653   53.2900 H       1  ZINC000501032137    0.1200
     42 H42        -9.4723    1.7695   57.1189 H       1  ZINC000501032137    0.4100
     43 H43       -10.5894   -0.5264   56.7358 H       1  ZINC000501032137    0.1500
     44 H44        -9.9763   -2.9623   56.3805 H       1  ZINC000501032137    0.1100
     45 H45        -9.8149   -3.1875   58.2038 H       1  ZINC000501032137    0.1000
     46 H46       -12.2442   -2.5213   58.5014 H       1  ZINC000501032137    0.1000
     47 H47       -12.4057   -2.2962   56.6780 H       1  ZINC000501032137    0.1100
     48 H48       -10.7340    0.0494   62.0562 H       1  ZINC000501032137    0.2500
@<TRIPOS>BOND
     1     1     2    1
     2     1    27    1
     3     1    28    1
     4     1    29    1
     5     2     3    1
     6     2    30    1
     7     2    31    1
     8     3     4    1
     9     3    32    1
    10     3    33    1
    11     4     5    1
    12     5     6    1
    13     5    34    1
    14     5    35    1
    15     6     7    1
    16     6     8    1
    17     6    16    1
    18     8     9    1
    19     8    36    1
    20     8    37    1
    21     9    15   ar
    22     9    10   ar
    23    10    11   ar
    24    10    38    1
    25    11    12   ar
    26    11    39    1
    27    12    13   ar
    28    12    40    1
    29    13    14    1
    30    13    15   ar
    31    15    41    1
    32    16    17   am
    33    16    42    1
    34    17    18    2
    35    17    19    1
    36    19    26    1
    37    19    20    2
    38    20    21    1
    39    20    24    1
    40    21    23    1
    41    21    22    1
    42    21    43    1
    43    22    23    1
    44    22    44    1
    45    22    45    1
    46    23    46    1
    47    23    47    1
    48    24    25    1
    49    25    26    2
    50    25    48    1
@<TRIPOS>SUBSTRUCTURE
     1 ZINC000501032137        1 TEMP              0 ****  ****    0 ROOT


##########                                Name:    ZINC001143596311
##########                DOCK_Rotatable_Bonds:                   9
##########                         Heavy_Atoms:                  21
##########                    Molecular_Weight:             335.811
##########                DOCK_Rotatable_Bonds:                   9
##########                       Formal_Charge:          0.00999959
##########                     HBond_Acceptors:                   9
##########                        HBond_Donors:                   3
##########                         Heavy_Atoms:                  21
##########                          Grid_Score:          -30.953175
##########                     Grid_vdw_energy:          -29.153795
##########                      Grid_es_energy:           -1.799379
##########           Internal_energy_repulsive:           10.997496

@<TRIPOS>MOLECULE
ZINC001143596311
 39 39 1 0 0
SMALL
USER_CHARGES


@<TRIPOS>ATOM
      1 C1         -9.4180   -0.6219   53.4005 C.3     1  ZINC001143596311    0.0400
      2 O2         -8.1312   -0.5840   52.7800 O.3     1  ZINC001143596311   -0.2600
      3 N3         -7.6484    0.7669   52.4935 N.3     1  ZINC001143596311   -0.3700
      4 C4         -7.5862    1.5747   53.7189 C.3     1  ZINC001143596311    0.0000
      5 C5         -6.3424    0.7277   51.8219 C.3     1  ZINC001143596311    0.0400
      6 C6         -6.1635    1.9928   50.9804 C.3     1  ZINC001143596311   -0.1300
      7 C7         -5.0378    2.8438   51.5716 C.3     1  ZINC001143596311    0.1200
      8 N8         -3.7564    2.4254   50.9978 N.am    1  ZINC001143596311   -0.7200
      9 C9         -2.6339    3.1158   51.2807 C.2     1  ZINC001143596311    0.5600
     10 O10        -2.6845    4.0846   52.0130 O.2     1  ZINC001143596311   -0.5200
     11 C11        -1.3416    2.6947   50.7004 C.ar    1  ZINC001143596311   -0.1500
     12 C12        -1.3112    1.9825   49.5002 C.ar    1  ZINC001143596311   -0.0200
     13 C13        -0.1021    1.5924   48.9636 C.ar    1  ZINC001143596311   -0.1300
     14 C14         1.0803    1.9054   49.6132 C.ar    1  ZINC001143596311    0.0700
     15 Cl15        2.5984    1.4109   48.9317 Cl      1  ZINC001143596311   -0.0200
     16 C16         1.0564    2.6120   50.8046 C.ar    1  ZINC001143596311   -0.6800
     17 S17         2.5660    3.0061   51.6235 S.o2    1  ZINC001143596311    2.7000
     18 N18         2.1902    4.0035   52.8909 N.am    1  ZINC001143596311   -1.2500
     19 O19         3.0413    1.7945   52.1937 O.2     1  ZINC001143596311   -0.9400
     20 O20         3.3259    3.7862   50.7107 O.2     1  ZINC001143596311   -0.9500
     21 C21        -0.1458    3.0128   51.3476 C.ar    1  ZINC001143596311    0.0500
     22 H22        -9.3800   -0.0860   54.3489 H       1  ZINC001143596311    0.0400
     23 H23       -10.1511   -0.1504   52.7459 H       1  ZINC001143596311    0.0500
     24 H24        -9.7045   -1.6582   53.5799 H       1  ZINC001143596311    0.0900
     25 H25        -6.9072    1.1043   54.4301 H       1  ZINC001143596311    0.0400
     26 H26        -7.2242    2.5740   53.4773 H       1  ZINC001143596311    0.0900
     27 H27        -8.5812    1.6451   54.1584 H       1  ZINC001143596311    0.0800
     28 H28        -5.5510    0.6738   52.5695 H       1  ZINC001143596311    0.0500
     29 H29        -6.2922   -0.1487   51.1758 H       1  ZINC001143596311    0.0900
     30 H30        -5.9102    1.7157   49.9571 H       1  ZINC001143596311    0.0800
     31 H31        -7.0911    2.5651   50.9828 H       1  ZINC001143596311    0.0800
     32 H32        -5.2149    3.8937   51.3382 H       1  ZINC001143596311    0.0800
     33 H33        -5.0120    2.7115   52.6532 H       1  ZINC001143596311    0.0800
     34 H34        -3.7159    1.6516   50.4143 H       1  ZINC001143596311    0.4000
     35 H35        -2.2326    1.7373   48.9930 H       1  ZINC001143596311    0.1500
     36 H36        -0.0772    1.0413   48.0351 H       1  ZINC001143596311    0.1600
     37 H37         1.5901    3.6963   53.5885 H       1  ZINC001143596311    0.4200
     38 H38         2.5701    4.8949   52.9359 H       1  ZINC001143596311    0.4200
     39 H39        -0.1632    3.5636   52.2765 H       1  ZINC001143596311    0.1700
@<TRIPOS>BOND
     1     1     2    1
     2     1    22    1
     3     1    23    1
     4     1    24    1
     5     2     3    1
     6     3     4    1
     7     3     5    1
     8     4    25    1
     9     4    26    1
    10     4    27    1
    11     5     6    1
    12     5    28    1
    13     5    29    1
    14     6     7    1
    15     6    30    1
    16     6    31    1
    17     7     8    1
    18     7    32    1
    19     7    33    1
    20     8     9   am
    21     8    34    1
    22     9    10    2
    23     9    11    1
    24    11    21   ar
    25    11    12   ar
    26    12    13   ar
    27    12    35    1
    28    13    14   ar
    29    13    36    1
    30    14    15    1
    31    14    16   ar
    32    16    17    1
    33    16    21   ar
    34    17    18   am
    35    17    19    2
    36    17    20    2
    37    18    37    1
    38    18    38    1
    39    21    39    1
@<TRIPOS>SUBSTRUCTURE
     1 ZINC001143596311        1 TEMP              0 ****  ****    0 ROOT


##########                                Name:    ZINC000533037883
##########                DOCK_Rotatable_Bonds:                   7
##########                         Heavy_Atoms:                  27
##########                    Molecular_Weight:             368.479
##########                DOCK_Rotatable_Bonds:                   7
##########                       Formal_Charge:          0.00999947
##########                     HBond_Acceptors:                   6
##########                        HBond_Donors:                   1
##########                         Heavy_Atoms:                  27
##########                          Grid_Score:          -30.933044
##########                     Grid_vdw_energy:          -30.996552
##########                      Grid_es_energy:            0.063507
##########           Internal_energy_repulsive:           12.716205

@<TRIPOS>MOLECULE
ZINC000533037883
 55 58 1 0 0
SMALL
USER_CHARGES


@<TRIPOS>ATOM
      1 O1         -0.9241    3.8481   53.0908 O.2     1  ZINC000533037883   -0.5900
      2 C2         -0.6773    3.4593   51.9654 C.2     1  ZINC000533037883    0.7100
      3 N3         -1.6831    3.1443   51.1255 N.am    1  ZINC000533037883   -0.7500
      4 C4         -3.0738    3.2644   51.5704 C.3     1  ZINC000533037883    0.1400
      5 C5         -3.9887    2.5315   50.5873 C.3     1  ZINC000533037883   -0.0500
      6 C6         -5.4264    2.7405   50.9880 C.2     1  ZINC000533037883   -0.2300
      7 C7         -6.1497    1.9395   51.8043 C.2     1  ZINC000533037883    0.0600
      8 N8         -7.3881    2.4719   51.9114 N.pl3   1  ZINC000533037883   -0.3200
      9 C9         -8.4480    1.9504   52.6663 C.ar    1  ZINC000533037883    0.1600
     10 C10        -9.6408    2.6536   52.7692 C.ar    1  ZINC000533037883   -0.1400
     11 C11       -10.6831    2.1372   53.5137 C.ar    1  ZINC000533037883   -0.0900
     12 C12       -10.5396    0.9215   54.1568 C.ar    1  ZINC000533037883   -0.1300
     13 C13        -9.3529    0.2188   54.0561 C.ar    1  ZINC000533037883   -0.0900
     14 C14        -8.3091    0.7271   53.3079 C.ar    1  ZINC000533037883   -0.1200
     15 N15        -7.4242    3.6373   51.1348 N.2     1  ZINC000533037883   -0.2900
     16 C16        -6.2472    3.8001   50.5863 C.2     1  ZINC000533037883    0.0700
     17 N17         0.6021    3.3488   51.5562 N.am    1  ZINC000533037883   -0.6300
     18 C18         1.7092    3.6886   52.4604 C.3     1  ZINC000533037883    0.1100
     19 C19         2.6730    2.4996   52.5281 C.3     1  ZINC000533037883   -0.1400
     20 C20         3.1117    2.1223   51.1113 C.3     1  ZINC000533037883   -0.1100
     21 C21         1.8888    1.7066   50.2905 C.3     1  ZINC000533037883   -0.0900
     22 H22         1.3942    0.8649   50.7753 H       1  ZINC000533037883    0.0800
     23 C23         2.3325    1.2974   48.8846 C.3     1  ZINC000533037883   -0.1200
     24 H24         2.9632    2.0669   48.4395 H       1  ZINC000533037883    0.0900
     25 C25         3.0665   -0.0708   48.9130 C.3     1  ZINC000533037883   -0.1500
     26 C26         2.7653   -0.5958   47.4866 C.3     1  ZINC000533037883    0.0500
     27 O27         1.4278   -0.1572   47.2002 O.3     1  ZINC000533037883   -0.3900
     28 C28         1.1114    1.0012   47.9876 C.3     1  ZINC000533037883    0.0500
     29 C29         0.9164    2.8807   50.1994 C.3     1  ZINC000533037883    0.1300
     30 H30        -1.4862    2.8378   50.2265 H       1  ZINC000533037883    0.4000
     31 H31        -3.1776    2.8231   52.5615 H       1  ZINC000533037883    0.0700
     32 H32        -3.3526    4.3174   51.6105 H       1  ZINC000533037883    0.0700
     33 H33        -3.8310    2.9237   49.5825 H       1  ZINC000533037883    0.0800
     34 H34        -3.7587    1.4663   50.6018 H       1  ZINC000533037883    0.0800
     35 H35        -5.8007    1.0369   52.2838 H       1  ZINC000533037883    0.1800
     36 H36        -9.7532    3.6035   52.2678 H       1  ZINC000533037883    0.1300
     37 H37       -11.6113    2.6838   53.5941 H       1  ZINC000533037883    0.1300
     38 H38       -11.3559    0.5201   54.7389 H       1  ZINC000533037883    0.1300
     39 H39        -9.2437   -0.7304   54.5594 H       1  ZINC000533037883    0.1300
     40 H40        -7.3826    0.1777   53.2295 H       1  ZINC000533037883    0.1400
     41 H41        -5.9606    4.6096   49.9314 H       1  ZINC000533037883    0.1900
     42 H42         2.2355    4.5643   52.0807 H       1  ZINC000533037883    0.0700
     43 H43         1.3171    3.8982   53.4556 H       1  ZINC000533037883    0.0800
     44 H44         3.5472    2.7732   53.1189 H       1  ZINC000533037883    0.0800
     45 H45         2.1711    1.6505   52.9918 H       1  ZINC000533037883    0.0700
     46 H46         3.5914    2.9797   50.6393 H       1  ZINC000533037883    0.0700
     47 H47         3.8167    1.2924   51.1584 H       1  ZINC000533037883    0.0700
     48 H48         4.1377    0.0611   49.0648 H       1  ZINC000533037883    0.0800
     49 H49         2.6422   -0.7286   49.6715 H       1  ZINC000533037883    0.0800
     50 H50         3.4657   -0.1672   46.7699 H       1  ZINC000533037883    0.0600
     51 H51         2.8192   -1.6843   47.4649 H       1  ZINC000533037883    0.0900
     52 H52         0.2395    0.7987   48.6095 H       1  ZINC000533037883    0.0700
     53 H53         0.9114    1.8496   47.3332 H       1  ZINC000533037883    0.0700
     54 H54         0.0015    2.5596   49.7013 H       1  ZINC000533037883    0.1000
     55 H55         1.3758    3.6929   49.6362 H       1  ZINC000533037883    0.0700
@<TRIPOS>BOND
     1     1     2    2
     2     2     3   am
     3     2    17   am
     4     3     4    1
     5     3    30    1
     6     4     5    1
     7     4    31    1
     8     4    32    1
     9     5     6    1
    10     5    33    1
    11     5    34    1
    12     6    16    1
    13     6     7    2
    14     7     8    1
    15     7    35    1
    16     8     9    1
    17     8    15    1
    18     9    14   ar
    19     9    10   ar
    20    10    11   ar
    21    10    36    1
    22    11    12   ar
    23    11    37    1
    24    12    13   ar
    25    12    38    1
    26    13    14   ar
    27    13    39    1
    28    14    40    1
    29    15    16    2
    30    16    41    1
    31    17    29    1
    32    17    18    1
    33    18    19    1
    34    18    42    1
    35    18    43    1
    36    19    20    1
    37    19    44    1
    38    19    45    1
    39    20    21    1
    40    20    46    1
    41    20    47    1
    42    21    22    1
    43    21    23    1
    44    21    29    1
    45    23    24    1
    46    23    28    1
    47    23    25    1
    48    25    26    1
    49    25    48    1
    50    25    49    1
    51    26    27    1
    52    26    50    1
    53    26    51    1
    54    27    28    1
    55    28    52    1
    56    28    53    1
    57    29    54    1
    58    29    55    1
@<TRIPOS>SUBSTRUCTURE
     1 ZINC000533037883        1 TEMP              0 ****  ****    0 ROOT


##########                                Name:    ZINC000533131987
##########                DOCK_Rotatable_Bonds:                  11
##########                         Heavy_Atoms:                  30
##########                    Molecular_Weight:             419.403
##########                DOCK_Rotatable_Bonds:                  11
##########                       Formal_Charge:                0.01
##########                     HBond_Acceptors:                   9
##########                        HBond_Donors:                   3
##########                         Heavy_Atoms:                  30
##########                          Grid_Score:          -30.915407
##########                     Grid_vdw_energy:          -30.859486
##########                      Grid_es_energy:           -0.055922
##########           Internal_energy_repulsive:           25.693583

@<TRIPOS>MOLECULE
ZINC000533131987
 50 52 1 0 0
SMALL
USER_CHARGES


@<TRIPOS>ATOM
      1 O1         -6.8857    0.3722   52.5509 O.2     1  ZINC000533131987   -0.5700
      2 C2         -7.4832    1.4041   52.7886 C.2     1  ZINC000533131987    0.7100
      3 N3         -8.7372    1.3588   53.2806 N.am    1  ZINC000533131987   -0.7400
      4 C4         -9.3825    0.0663   53.5233 C.3     1  ZINC000533131987    0.1400
      5 C5        -10.5253    0.2468   54.5244 C.3     1  ZINC000533131987   -0.0900
      6 H6        -10.3651    1.1599   55.0979 H       1  ZINC000533131987    0.0900
      7 C7        -11.8531    0.3444   53.7706 C.3     1  ZINC000533131987    0.0800
      8 O8        -11.6719    1.1221   52.5854 O.3     1  ZINC000533131987   -0.5600
      9 C9        -10.5651   -0.9518   55.4746 C.3     1  ZINC000533131987   -0.0900
     10 C10        -9.9734   -0.5591   56.8037 C.ar    1  ZINC000533131987    0.0000
     11 C11        -8.9575    0.3765   56.8585 C.ar    1  ZINC000533131987   -0.1100
     12 C12        -8.4146    0.7368   58.0779 C.ar    1  ZINC000533131987   -0.0800
     13 C13        -8.8880    0.1617   59.2421 C.ar    1  ZINC000533131987   -0.1300
     14 C14        -9.9047   -0.7736   59.1874 C.ar    1  ZINC000533131987   -0.0700
     15 C15       -10.4504   -1.1306   57.9688 C.ar    1  ZINC000533131987   -0.1700
     16 C16       -11.5588   -2.1500   57.9091 C.3     1  ZINC000533131987    0.5100
     17 F17       -11.7466   -2.7094   59.1775 F       1  ZINC000533131987   -0.1800
     18 F18       -12.7416   -1.5291   57.4934 F       1  ZINC000533131987   -0.1700
     19 F19       -11.2171   -3.1577   57.0008 F       1  ZINC000533131987   -0.1800
     20 N20        -6.8894    2.5932   52.5653 N.am    1  ZINC000533131987   -0.6900
     21 C21        -5.5872    2.6403   52.0545 C.ar    1  ZINC000533131987    0.1600
     22 C22        -5.3485    2.3008   50.7284 C.ar    1  ZINC000533131987   -0.1000
     23 C23        -4.0640    2.3456   50.2189 C.ar    1  ZINC000533131987   -0.1000
     24 C24        -3.0105    2.7279   51.0239 C.ar    1  ZINC000533131987   -0.1000
     25 C25        -3.2400    3.0709   52.3577 C.ar    1  ZINC000533131987    0.0000
     26 C26        -2.1132    3.4813   53.2224 C.2     1  ZINC000533131987    0.2300
     27 N27        -0.9467    3.9149   52.8064 N.2     1  ZINC000533131987   -0.4700
     28 C28        -0.1850    4.1900   53.8759 C.2     1  ZINC000533131987   -0.0400
     29 C29        -0.9073    3.9164   54.9777 C.2     1  ZINC000533131987   -0.0700
     30 O30        -2.1138    3.4784   54.5667 O.3     1  ZINC000533131987   -0.2000
     31 C31        -4.5364    3.0312   52.8699 C.ar    1  ZINC000533131987   -0.1000
     32 H32        -9.2123    2.1821   53.4739 H       1  ZINC000533131987    0.4000
     33 H33        -9.7790   -0.3235   52.5858 H       1  ZINC000533131987    0.0700
     34 H34        -8.6521   -0.6343   53.9281 H       1  ZINC000533131987    0.0800
     35 H35       -12.1919   -0.6558   53.5006 H       1  ZINC000533131987    0.0400
     36 H36       -12.5983    0.8209   54.4074 H       1  ZINC000533131987    0.0600
     37 H37       -10.8350    0.9563   52.1302 H       1  ZINC000533131987    0.3800
     38 H38       -11.5984   -1.2688   55.6163 H       1  ZINC000533131987    0.0800
     39 H39        -9.9884   -1.7726   55.0483 H       1  ZINC000533131987    0.0900
     40 H40        -8.5877    0.8259   55.9487 H       1  ZINC000533131987    0.1300
     41 H41        -7.6203    1.4674   58.1206 H       1  ZINC000533131987    0.1300
     42 H42        -8.4634    0.4426   60.1946 H       1  ZINC000533131987    0.1300
     43 H43       -10.2744   -1.2232   60.0971 H       1  ZINC000533131987    0.1300
     44 H44        -7.3646    3.4165   52.7587 H       1  ZINC000533131987    0.4100
     45 H45        -6.1690    2.0005   50.0937 H       1  ZINC000533131987    0.1500
     46 H46        -3.8845    2.0803   49.1876 H       1  ZINC000533131987    0.1400
     47 H47        -2.0085    2.7613   50.6224 H       1  ZINC000533131987    0.1300
     48 H48         0.8278    4.5644   53.8562 H       1  ZINC000533131987    0.1900
     49 H49        -0.5822    4.0304   56.0012 H       1  ZINC000533131987    0.2200
     50 H50        -4.7200    3.2955   53.9008 H       1  ZINC000533131987    0.1400
@<TRIPOS>BOND
     1     1     2    2
     2     2     3   am
     3     2    20   am
     4     3     4    1
     5     3    32    1
     6     4     5    1
     7     4    33    1
     8     4    34    1
     9     5     6    1
    10     5     7    1
    11     5     9    1
    12     7     8    1
    13     7    35    1
    14     7    36    1
    15     8    37    1
    16     9    10    1
    17     9    38    1
    18     9    39    1
    19    10    15   ar
    20    10    11   ar
    21    11    12   ar
    22    11    40    1
    23    12    13   ar
    24    12    41    1
    25    13    14   ar
    26    13    42    1
    27    14    15   ar
    28    14    43    1
    29    15    16    1
    30    16    17    1
    31    16    18    1
    32    16    19    1
    33    20    21    1
    34    20    44    1
    35    21    31   ar
    36    21    22   ar
    37    22    23   ar
    38    22    45    1
    39    23    24   ar
    40    23    46    1
    41    24    25   ar
    42    24    47    1
    43    25    26    1
    44    25    31   ar
    45    26    30    1
    46    26    27    2
    47    27    28    1
    48    28    29    2
    49    28    48    1
    50    29    30    1
    51    29    49    1
    52    31    50    1
@<TRIPOS>SUBSTRUCTURE
     1 ZINC000533131987        1 TEMP              0 ****  ****    0 ROOT


##########                                Name:    ZINC001300804061
##########                DOCK_Rotatable_Bonds:                   5
##########                         Heavy_Atoms:                  27
##########                    Molecular_Weight:              390.55
##########                DOCK_Rotatable_Bonds:                   5
##########                       Formal_Charge:                0.01
##########                     HBond_Acceptors:                   7
##########                        HBond_Donors:                   0
##########                         Heavy_Atoms:                  27
##########                          Grid_Score:          -30.829655
##########                     Grid_vdw_energy:          -30.588982
##########                      Grid_es_energy:           -0.240673
##########           Internal_energy_repulsive:           17.419304

@<TRIPOS>MOLECULE
ZINC001300804061
 57 60 1 0 0
SMALL
USER_CHARGES


@<TRIPOS>ATOM
      1 C1        -13.7503    1.3000   52.3958 C.3     1  ZINC001300804061    0.0300
      2 O2        -12.9752    0.2624   52.9998 O.3     1  ZINC001300804061   -0.3800
      3 C3        -11.8477    0.7349   53.7397 C.3     1  ZINC001300804061    0.1000
      4 H4        -11.9243    1.8143   53.8701 H       1  ZINC001300804061    0.0700
      5 C5        -10.5619    0.4020   52.9795 C.3     1  ZINC001300804061    0.0500
      6 N6         -9.4018    0.8686   53.7495 N.3     1  ZINC001300804061   -0.4600
      7 C7         -8.2298    0.7009   53.0316 C.2     1  ZINC001300804061    0.3600
      8 N8         -7.8822   -0.3643   52.3466 N.2     1  ZINC001300804061   -0.3000
      9 N9         -6.7323   -0.1846   51.8018 N.2     1  ZINC001300804061   -0.2500
     10 C10        -6.2740    1.0098   52.1063 C.2     1  ZINC001300804061    0.2600
     11 C11        -4.9928    1.5915   51.6763 C.2     1  ZINC001300804061    0.0400
     12 C12        -4.4891    1.5702   50.4104 C.2     1  ZINC001300804061   -0.1300
     13 C13        -3.2500    2.2379   50.4560 C.2     1  ZINC001300804061   -0.2100
     14 C14        -3.0586    2.6302   51.7313 C.2     1  ZINC001300804061    0.0100
     15 C15        -1.8600    3.3838   52.2475 C.3     1  ZINC001300804061   -0.0800
     16 O16        -4.1154    2.2435   52.4646 O.3     1  ZINC001300804061   -0.1700
     17 N17        -7.2235    1.6150   52.8996 N.pl3   1  ZINC001300804061   -0.4600
     18 C18        -7.1629    2.9560   53.4864 C.3     1  ZINC001300804061    0.1200
     19 C19        -7.7175    3.9748   52.4887 C.3     1  ZINC001300804061   -0.1000
     20 H20        -7.8636    4.9309   52.9915 H       1  ZINC001300804061    0.0900
     21 C21        -9.0547    3.4776   51.9475 C.3     1  ZINC001300804061   -0.1200
     22 C22        -9.7617    4.5778   51.1614 C.3     1  ZINC001300804061   -0.1200
     23 C23        -9.0260    4.8335   49.8434 C.3     1  ZINC001300804061   -0.0800
     24 S24        -7.3512    5.4347   50.2131 S.3     1  ZINC001300804061   -0.2600
     25 C25        -6.7236    4.1522   51.3379 C.3     1  ZINC001300804061   -0.0700
     26 C26        -9.3225    0.1940   55.0514 C.3     1  ZINC001300804061    0.0600
     27 C27       -10.5713    0.5206   55.8735 C.3     1  ZINC001300804061   -0.1100
     28 C28       -11.8152    0.0552   55.1114 C.3     1  ZINC001300804061   -0.0900
     29 H29       -11.7788   -1.0263   54.9804 H       1  ZINC001300804061    0.0800
     30 C30       -13.0699    0.4324   55.9017 C.3     1  ZINC001300804061   -0.1400
     31 H31       -14.1300    1.9672   53.1696 H       1  ZINC001300804061    0.0400
     32 H32       -13.1252    1.8645   51.7040 H       1  ZINC001300804061    0.0400
     33 H33       -14.5868    0.8597   51.8532 H       1  ZINC001300804061    0.0900
     34 H34       -10.4931   -0.6764   52.8367 H       1  ZINC001300804061    0.0700
     35 H35       -10.5758    0.8966   52.0083 H       1  ZINC001300804061    0.0800
     36 H36        -4.9506    1.1266   49.5405 H       1  ZINC001300804061    0.1600
     37 H37        -2.5797    2.4043   49.6257 H       1  ZINC001300804061    0.1600
     38 H38        -2.0432    4.4555   52.1691 H       1  ZINC001300804061    0.0900
     39 H39        -1.6868    3.1202   53.2909 H       1  ZINC001300804061    0.0800
     40 H40        -0.9830    3.1209   51.6560 H       1  ZINC001300804061    0.0900
     41 H41        -7.7580    2.9804   54.3993 H       1  ZINC001300804061    0.1100
     42 H42        -6.1275    3.2035   53.7208 H       1  ZINC001300804061    0.1000
     43 H43        -8.8816    2.6233   51.2931 H       1  ZINC001300804061    0.0700
     44 H44        -9.6865    3.1688   52.7802 H       1  ZINC001300804061    0.0800
     45 H45       -10.7860    4.2707   50.9504 H       1  ZINC001300804061    0.0800
     46 H46        -9.7746    5.4936   51.7523 H       1  ZINC001300804061    0.0800
     47 H47        -8.9637    3.9061   49.2740 H       1  ZINC001300804061    0.0800
     48 H48        -9.5640    5.5843   49.2645 H       1  ZINC001300804061    0.1100
     49 H49        -5.7565    4.4579   51.7370 H       1  ZINC001300804061    0.1000
     50 H50        -6.6169    3.2122   50.7966 H       1  ZINC001300804061    0.0900
     51 H51        -9.2596   -0.8835   54.8990 H       1  ZINC001300804061    0.0600
     52 H52        -8.4363    0.5376   55.5851 H       1  ZINC001300804061    0.0800
     53 H53       -10.5195    0.0072   56.8336 H       1  ZINC001300804061    0.0800
     54 H54       -10.6275    1.5966   56.0382 H       1  ZINC001300804061    0.0800
     55 H55       -13.1067    1.5142   56.0302 H       1  ZINC001300804061    0.0500
     56 H56       -13.9548    0.1008   55.3585 H       1  ZINC001300804061    0.0600
     57 H57       -13.0420   -0.0490   56.8792 H       1  ZINC001300804061    0.0600
@<TRIPOS>BOND
     1     1     2    1
     2     1    31    1
     3     1    32    1
     4     1    33    1
     5     2     3    1
     6     3     4    1
     7     3    28    1
     8     3     5    1
     9     5     6    1
    10     5    34    1
    11     5    35    1
    12     6     7    1
    13     6    26    1
    14     7    17    1
    15     7     8    2
    16     8     9    1
    17     9    10    2
    18    10    11    1
    19    10    17    1
    20    11    16    1
    21    11    12    2
    22    12    13    1
    23    12    36    1
    24    13    14    2
    25    13    37    1
    26    14    15    1
    27    14    16    1
    28    15    38    1
    29    15    39    1
    30    15    40    1
    31    17    18    1
    32    18    19    1
    33    18    41    1
    34    18    42    1
    35    19    20    1
    36    19    25    1
    37    19    21    1
    38    21    22    1
    39    21    43    1
    40    21    44    1
    41    22    23    1
    42    22    45    1
    43    22    46    1
    44    23    24    1
    45    23    47    1
    46    23    48    1
    47    24    25    1
    48    25    49    1
    49    25    50    1
    50    26    27    1
    51    26    51    1
    52    26    52    1
    53    27    28    1
    54    27    53    1
    55    27    54    1
    56    28    29    1
    57    28    30    1
    58    30    55    1
    59    30    56    1
    60    30    57    1
@<TRIPOS>SUBSTRUCTURE
     1 ZINC001300804061        1 TEMP              0 ****  ****    0 ROOT


##########                                Name:    ZINC000011157684
##########                DOCK_Rotatable_Bonds:                   7
##########                         Heavy_Atoms:                  25
##########                    Molecular_Weight:             374.866
##########                DOCK_Rotatable_Bonds:                   7
##########                       Formal_Charge:           0.0400001
##########                     HBond_Acceptors:                   6
##########                        HBond_Donors:                   2
##########                         Heavy_Atoms:                  25
##########                          Grid_Score:          -30.827538
##########                     Grid_vdw_energy:          -29.475054
##########                      Grid_es_energy:           -1.352483
##########           Internal_energy_repulsive:            6.910126

@<TRIPOS>MOLECULE
ZINC000011157684
 41 43 1 0 0
SMALL
USER_CHARGES


@<TRIPOS>ATOM
      1 O1         -6.1861    2.8509   50.5367 O.2     1  ZINC000011157684   -0.5200
      2 C2         -5.3341    2.4021   51.2740 C.2     1  ZINC000011157684    0.5100
      3 C3         -4.0261    1.9151   50.7056 C.3     1  ZINC000011157684    0.1000
      4 N4         -3.0002    2.9446   50.8896 N.pl3   1  ZINC000011157684   -0.7300
      5 C5         -1.6673    2.6699   50.5650 C.ar    1  ZINC000011157684    0.2200
      6 C6         -1.3579    2.0558   49.3593 C.ar    1  ZINC000011157684   -0.1600
      7 C7         -0.0410    1.7858   49.0402 C.ar    1  ZINC000011157684   -0.0900
      8 C8          0.9702    2.1265   49.9222 C.ar    1  ZINC000011157684    0.0500
      9 F9          2.2571    1.8609   49.6081 F       1  ZINC000011157684   -0.1400
     10 C10         0.6648    2.7397   51.1258 C.ar    1  ZINC000011157684   -0.0900
     11 C11        -0.6504    3.0166   51.4469 C.ar    1  ZINC000011157684   -0.0900
     12 Cl12       -1.0333    3.7852   52.9557 Cl      1  ZINC000011157684   -0.0500
     13 N13        -5.5548    2.3441   52.6023 N.am    1  ZINC000011157684   -0.7200
     14 C14        -6.8263    2.8175   53.1548 C.3     1  ZINC000011157684    0.2600
     15 H15        -7.1218    3.7374   52.6502 H       1  ZINC000011157684    0.1200
     16 C16        -6.6654    3.0829   54.6296 C.2     1  ZINC000011157684   -0.1900
     17 C17        -6.2452    4.2309   55.1629 C.2     1  ZINC000011157684   -0.1200
     18 C18        -6.1770    4.2413   56.5455 C.2     1  ZINC000011157684   -0.1300
     19 C19        -6.5417    3.1015   57.1348 C.2     1  ZINC000011157684   -0.2100
     20 S20        -7.0104    1.9284   55.9109 S.3     1  ZINC000011157684    0.1100
     21 C21        -7.8868    1.7672   52.9461 C.ar    1  ZINC000011157684   -0.0900
     22 C22        -9.2191    2.1317   52.8917 C.ar    1  ZINC000011157684   -0.1100
     23 C23       -10.1918    1.1684   52.7003 C.ar    1  ZINC000011157684   -0.1100
     24 C24        -9.8323   -0.1592   52.5628 C.ar    1  ZINC000011157684   -0.1100
     25 C25        -8.4999   -0.5235   52.6163 C.ar    1  ZINC000011157684   -0.1100
     26 C26        -7.5268    0.4402   52.8034 C.ar    1  ZINC000011157684   -0.1000
     27 H27        -3.7227    1.0037   51.2209 H       1  ZINC000011157684    0.1000
     28 H28        -4.1465    1.7083   49.6422 H       1  ZINC000011157684    0.1000
     29 H29        -3.2450    3.8167   51.2365 H       1  ZINC000011157684    0.4200
     30 H30        -2.1462    1.7890   48.6708 H       1  ZINC000011157684    0.1400
     31 H31         0.1998    1.3081   48.1021 H       1  ZINC000011157684    0.1400
     32 H32         1.4552    3.0050   51.8123 H       1  ZINC000011157684    0.1500
     33 H33        -4.8718    1.9887   53.1923 H       1  ZINC000011157684    0.4000
     34 H34        -5.9782    5.0874   54.5617 H       1  ZINC000011157684    0.1400
     35 H35        -5.8526    5.1065   57.1046 H       1  ZINC000011157684    0.1400
     36 H36        -6.5514    2.9270   58.2006 H       1  ZINC000011157684    0.1700
     37 H37        -9.5000    3.1690   52.9992 H       1  ZINC000011157684    0.1200
     38 H38       -11.2329    1.4531   52.6585 H       1  ZINC000011157684    0.1300
     39 H39       -10.5924   -0.9120   52.4139 H       1  ZINC000011157684    0.1300
     40 H40        -8.2190   -1.5608   52.5092 H       1  ZINC000011157684    0.1300
     41 H41        -6.4858    0.1556   52.8452 H       1  ZINC000011157684    0.1300
@<TRIPOS>BOND
     1     1     2    2
     2     2     3    1
     3     2    13   am
     4     3     4    1
     5     3    27    1
     6     3    28    1
     7     4     5    1
     8     4    29    1
     9     5    11   ar
    10     5     6   ar
    11     6     7   ar
    12     6    30    1
    13     7     8   ar
    14     7    31    1
    15     8     9    1
    16     8    10   ar
    17    10    11   ar
    18    10    32    1
    19    11    12    1
    20    13    14    1
    21    13    33    1
    22    14    15    1
    23    14    16    1
    24    14    21    1
    25    16    20    1
    26    16    17    2
    27    17    18    1
    28    17    34    1
    29    18    19    2
    30    18    35    1
    31    19    20    1
    32    19    36    1
    33    21    26   ar
    34    21    22   ar
    35    22    23   ar
    36    22    37    1
    37    23    24   ar
    38    23    38    1
    39    24    25   ar
    40    24    39    1
    41    25    26   ar
    42    25    40    1
    43    26    41    1
@<TRIPOS>SUBSTRUCTURE
     1 ZINC000011157684        1 TEMP              0 ****  ****    0 ROOT


##########                                Name:    ZINC000466160459
##########                DOCK_Rotatable_Bonds:                   9
##########                         Heavy_Atoms:                  30
##########                    Molecular_Weight:             420.512
##########                DOCK_Rotatable_Bonds:                   9
##########                       Formal_Charge:          -0.0300007
##########                     HBond_Acceptors:                  10
##########                        HBond_Donors:                   2
##########                         Heavy_Atoms:                  30
##########                          Grid_Score:          -30.794744
##########                     Grid_vdw_energy:          -30.366995
##########                      Grid_es_energy:           -0.427749
##########           Internal_energy_repulsive:          101.864426

@<TRIPOS>MOLECULE
ZINC000466160459
 62 64 1 0 0
SMALL
USER_CHARGES


@<TRIPOS>ATOM
      1 C1        -14.1066   -3.2750   57.3845 C.3     1  ZINC000466160459    0.0300
      2 O2        -12.9597   -3.5094   56.5649 O.3     1  ZINC000466160459   -0.3900
      3 C3        -11.7252   -3.1132   57.1656 C.3     1  ZINC000466160459    0.0500
      4 C4        -11.7757   -1.6206   57.4981 C.3     1  ZINC000466160459    0.1200
      5 N5        -10.4479   -1.1695   57.9218 N.am    1  ZINC000466160459   -0.7300
      6 C6        -10.1465   -1.0997   59.2335 C.2     1  ZINC000466160459    0.5200
      7 O7        -10.9742   -1.4119   60.0633 O.2     1  ZINC000466160459   -0.5200
      8 C8         -8.7812   -0.6340   59.6694 C.3     1  ZINC000466160459   -0.1300
      9 H9         -8.0955   -1.4812   59.6846 H       1  ZINC000466160459    0.1100
     10 C10        -8.8723   -0.0253   61.0706 C.3     1  ZINC000466160459   -0.1000
     11 C11        -9.8604    1.1432   61.0578 C.3     1  ZINC000466160459   -0.1500
     12 C12        -9.3567    2.2221   60.0938 C.3     1  ZINC000466160459    0.1600
     13 H13        -8.4230    2.6407   60.4695 H       1  ZINC000466160459    0.0700
     14 C14       -10.4039    3.3310   59.9727 C.3     1  ZINC000466160459   -0.1400
     15 N15        -9.1281    1.6107   58.7775 N.am    1  ZINC000466160459   -0.6200
     16 C16        -9.6987    2.1283   57.6716 C.2     1  ZINC000466160459    0.7100
     17 O17       -10.4102    3.1104   57.7575 O.2     1  ZINC000466160459   -0.5500
     18 N18        -9.4803    1.5572   56.4705 N.am    1  ZINC000466160459   -0.7300
     19 C19       -10.1005    2.1198   55.2683 C.3     1  ZINC000466160459    0.1600
     20 H20       -10.5890    3.0611   55.5197 H       1  ZINC000466160459    0.1300
     21 C21       -11.1401    1.1365   54.7248 C.3     1  ZINC000466160459   -0.1400
     22 C22       -10.4023   -0.0658   54.1235 C.3     1  ZINC000466160459   -0.1400
     23 C23        -9.6442    0.3974   52.8789 C.3     1  ZINC000466160459    0.1100
     24 N24        -8.8404    1.5754   53.1800 N.am    1  ZINC000466160459   -0.5200
     25 C25        -7.7892    1.8935   52.3094 C.2     1  ZINC000466160459    0.2800
     26 N26        -6.6760    1.2140   52.1644 N.2     1  ZINC000466160459   -0.2600
     27 N27        -5.8915    1.8613   51.2012 N.pl3   1  ZINC000466160459   -0.3800
     28 C28        -4.5691    1.4328   50.7387 C.3     1  ZINC000466160459    0.1000
     29 C29        -6.5673    2.9485   50.7733 C.2     1  ZINC000466160459    0.0700
     30 C30        -7.7457    2.9915   51.4354 C.2     1  ZINC000466160459   -0.2900
     31 C31        -9.0431    2.3679   54.2311 C.2     1  ZINC000466160459    0.4900
     32 O32        -8.3358    3.3450   54.3582 O.2     1  ZINC000466160459   -0.4700
     33 C33        -8.2650    0.4241   58.6892 C.3     1  ZINC000466160459    0.1200
     34 H34       -15.0028   -3.6024   56.8575 H       1  ZINC000466160459    0.0900
     35 H35       -14.0081   -3.8335   58.3153 H       1  ZINC000466160459    0.0400
     36 H36       -14.1836   -2.2106   57.6058 H       1  ZINC000466160459    0.0400
     37 H37       -11.5665   -3.6841   58.0804 H       1  ZINC000466160459    0.0600
     38 H38       -10.9061   -3.3033   56.4720 H       1  ZINC000466160459    0.0700
     39 H39       -12.0845   -1.0618   56.6147 H       1  ZINC000466160459    0.0800
     40 H40       -12.4907   -1.4517   58.3032 H       1  ZINC000466160459    0.0800
     41 H41        -9.7854   -0.9210   57.2582 H       1  ZINC000466160459    0.4000
     42 H42        -9.2158   -0.7836   61.7743 H       1  ZINC000466160459    0.0700
     43 H43        -7.8892    0.3336   61.3752 H       1  ZINC000466160459    0.0700
     44 H44       -10.8378    0.7896   60.7294 H       1  ZINC000466160459    0.1000
     45 H45        -9.9424    1.5613   62.0610 H       1  ZINC000466160459    0.0700
     46 H46       -10.6513    3.7070   60.9654 H       1  ZINC000466160459    0.0400
     47 H47       -10.0042    4.1434   59.3657 H       1  ZINC000466160459    0.0800
     48 H48       -11.3020    2.9326   59.5007 H       1  ZINC000466160459    0.0600
     49 H49        -8.9124    0.7737   56.4019 H       1  ZINC000466160459    0.3900
     50 H50       -11.7875    0.8018   55.5353 H       1  ZINC000466160459    0.0900
     51 H51       -11.7378    1.6232   53.9542 H       1  ZINC000466160459    0.0900
     52 H52        -9.6978   -0.4649   54.8534 H       1  ZINC000466160459    0.0700
     53 H53       -11.1223   -0.8361   53.8476 H       1  ZINC000466160459    0.1000
     54 H54        -8.9921   -0.4053   52.5347 H       1  ZINC000466160459    0.0900
     55 H55       -10.3580    0.6400   52.0918 H       1  ZINC000466160459    0.0800
     56 H56        -4.6818    0.7625   49.8866 H       1  ZINC000466160459    0.0700
     57 H57        -3.9882    2.3055   50.4402 H       1  ZINC000466160459    0.0900
     58 H58        -4.0534    0.9117   51.5452 H       1  ZINC000466160459    0.0900
     59 H59        -6.2288    3.6561   50.0309 H       1  ZINC000466160459    0.1800
     60 H60        -8.5139    3.7416   51.3182 H       1  ZINC000466160459    0.1500
     61 H61        -7.2422    0.6961   58.9503 H       1  ZINC000466160459    0.0900
     62 H62        -8.2920    0.0272   57.6744 H       1  ZINC000466160459    0.0700
@<TRIPOS>BOND
     1     1     2    1
     2     1    34    1
     3     1    35    1
     4     1    36    1
     5     2     3    1
     6     3     4    1
     7     3    37    1
     8     3    38    1
     9     4     5    1
    10     4    39    1
    11     4    40    1
    12     5     6   am
    13     5    41    1
    14     6     7    2
    15     6     8    1
    16     8     9    1
    17     8    33    1
    18     8    10    1
    19    10    11    1
    20    10    42    1
    21    10    43    1
    22    11    12    1
    23    11    44    1
    24    11    45    1
    25    12    13    1
    26    12    14    1
    27    12    15    1
    28    14    46    1
    29    14    47    1
    30    14    48    1
    31    15    16   am
    32    15    33    1
    33    16    17    2
    34    16    18   am
    35    18    19    1
    36    18    49    1
    37    19    20    1
    38    19    31    1
    39    19    21    1
    40    21    22    1
    41    21    50    1
    42    21    51    1
    43    22    23    1
    44    22    52    1
    45    22    53    1
    46    23    24    1
    47    23    54    1
    48    23    55    1
    49    24    25    1
    50    24    31   am
    51    25    30    1
    52    25    26    2
    53    26    27    1
    54    27    28    1
    55    27    29    1
    56    28    56    1
    57    28    57    1
    58    28    58    1
    59    29    30    2
    60    29    59    1
    61    30    60    1
    62    31    32    2
    63    33    61    1
    64    33    62    1
@<TRIPOS>SUBSTRUCTURE
     1 ZINC000466160459        1 TEMP              0 ****  ****    0 ROOT


##########                                Name:    ZINC000532153088
##########                DOCK_Rotatable_Bonds:                  11
##########                         Heavy_Atoms:                  29
##########                    Molecular_Weight:             402.484
##########                DOCK_Rotatable_Bonds:                  11
##########                       Formal_Charge:          -0.0200009
##########                     HBond_Acceptors:                   6
##########                        HBond_Donors:                   1
##########                         Heavy_Atoms:                  29
##########                          Grid_Score:          -30.789547
##########                     Grid_vdw_energy:          -31.910952
##########                      Grid_es_energy:            1.121405
##########           Internal_energy_repulsive:           18.090775

@<TRIPOS>MOLECULE
ZINC000532153088
 57 59 1 0 0
SMALL
USER_CHARGES


@<TRIPOS>ATOM
      1 C1         -9.9129    1.8932   60.3294 C.3     1  ZINC000532153088   -0.1800
      2 C2         -9.0847    0.8426   61.0717 C.3     1  ZINC000532153088    0.0800
      3 C3         -9.9420    0.1926   62.1595 C.3     1  ZINC000532153088   -0.1500
      4 O4         -8.6464   -0.1573   60.1496 O.3     1  ZINC000532153088   -0.3800
      5 C5         -7.6552    0.2980   59.2264 C.3     1  ZINC000532153088    0.1000
      6 C6         -8.2933    0.5380   57.8823 C.ar    1  ZINC000532153088   -0.0700
      7 C7         -9.3912   -0.2072   57.4956 C.ar    1  ZINC000532153088   -0.1000
      8 C8         -9.9765    0.0131   56.2626 C.ar    1  ZINC000532153088   -0.1100
      9 C9         -9.4641    0.9788   55.4169 C.ar    1  ZINC000532153088   -0.1200
     10 C10        -8.3664    1.7249   55.8041 C.ar    1  ZINC000532153088   -0.1000
     11 C11        -7.7839    1.5076   57.0385 C.ar    1  ZINC000532153088   -0.1100
     12 C12        -6.5874    2.3209   57.4608 C.3     1  ZINC000532153088    0.1600
     13 N13        -6.0534    3.0415   56.3024 N.am    1  ZINC000532153088   -0.7300
     14 C14        -5.4422    4.2307   56.4718 C.2     1  ZINC000532153088    0.5100
     15 O15        -5.3355    4.7049   57.5829 O.2     1  ZINC000532153088   -0.5000
     16 C16        -4.8912    4.9712   55.2805 C.3     1  ZINC000532153088    0.0300
     17 N17        -3.8685    4.1475   54.6221 N.3     1  ZINC000532153088   -0.4800
     18 C18        -3.7918    4.4509   53.1868 C.3     1  ZINC000532153088    0.1000
     19 C19        -4.2841    3.2665   52.3959 C.ar    1  ZINC000532153088   -0.1300
     20 C20        -5.5481    2.7583   52.6279 C.ar    1  ZINC000532153088   -0.0600
     21 C21        -6.0013    1.6722   51.9029 C.ar    1  ZINC000532153088   -0.1700
     22 C22        -5.1891    1.0922   50.9433 C.ar    1  ZINC000532153088    0.1300
     23 F23        -5.6325    0.0309   50.2344 F       1  ZINC000532153088   -0.1300
     24 C24        -3.9227    1.6004   50.7100 C.ar    1  ZINC000532153088   -0.2000
     25 C25        -3.4720    2.6912   51.4328 C.ar    1  ZINC000532153088    0.1600
     26 F26        -2.2364    3.1883   51.2063 F       1  ZINC000532153088   -0.1100
     27 C27        -2.5596    4.3183   55.2669 C.3     1  ZINC000532153088    0.0200
     28 C28        -2.0229    3.1499   56.0963 C.3     1  ZINC000532153088   -0.2200
     29 C29        -1.3967    3.4759   54.7389 C.3     1  ZINC000532153088   -0.1700
     30 H30       -10.2471    2.6558   61.0327 H       1  ZINC000532153088    0.0700
     31 H31        -9.3020    2.3562   59.5545 H       1  ZINC000532153088    0.0600
     32 H32       -10.7796    1.4159   59.8720 H       1  ZINC000532153088    0.0700
     33 H33        -8.2179    1.3199   61.5291 H       1  ZINC000532153088    0.0600
     34 H34       -10.8087   -0.2848   61.7022 H       1  ZINC000532153088    0.0600
     35 H35        -9.3519   -0.5558   62.6884 H       1  ZINC000532153088    0.0600
     36 H36       -10.2763    0.9552   62.8628 H       1  ZINC000532153088    0.0700
     37 H37        -7.2175    1.2269   59.5919 H       1  ZINC000532153088    0.0600
     38 H38        -6.8754   -0.4573   59.1287 H       1  ZINC000532153088    0.0600
     39 H39        -9.7916   -0.9617   58.1564 H       1  ZINC000532153088    0.1300
     40 H40       -10.8340   -0.5697   55.9600 H       1  ZINC000532153088    0.1200
     41 H41        -9.9209    1.1504   54.4534 H       1  ZINC000532153088    0.1300
     42 H42        -7.9658    2.4792   55.1432 H       1  ZINC000532153088    0.1300
     43 H43        -6.8863    3.0359   58.2273 H       1  ZINC000532153088    0.0800
     44 H44        -5.8205    1.6580   57.8613 H       1  ZINC000532153088    0.0800
     45 H45        -6.1397    2.6628   55.4136 H       1  ZINC000532153088    0.4000
     46 H46        -5.6977    5.1796   54.5774 H       1  ZINC000532153088    0.0700
     47 H47        -4.4451    5.9094   55.6103 H       1  ZINC000532153088    0.1100
     48 H48        -4.4126    5.3191   52.9653 H       1  ZINC000532153088    0.0900
     49 H49        -2.7580    4.6648   52.9154 H       1  ZINC000532153088    0.0500
     50 H50        -6.1822    3.2098   53.3765 H       1  ZINC000532153088    0.1400
     51 H51        -6.9892    1.2756   52.0852 H       1  ZINC000532153088    0.1400
     52 H52        -3.2884    1.1486   49.9616 H       1  ZINC000532153088    0.1500
     53 H53        -2.3341    5.3270   55.6128 H       1  ZINC000532153088    0.1200
     54 H54        -1.4441    3.3899   56.9882 H       1  ZINC000532153088    0.1000
     55 H55        -2.6410    2.2545   56.1635 H       1  ZINC000532153088    0.1000
     56 H56        -1.6027    2.7949   53.9131 H       1  ZINC000532153088    0.1000
     57 H57        -0.4059    3.9303   54.7379 H       1  ZINC000532153088    0.1000
@<TRIPOS>BOND
     1     1     2    1
     2     1    30    1
     3     1    31    1
     4     1    32    1
     5     2     3    1
     6     2     4    1
     7     2    33    1
     8     3    34    1
     9     3    35    1
    10     3    36    1
    11     4     5    1
    12     5     6    1
    13     5    37    1
    14     5    38    1
    15     6    11   ar
    16     6     7   ar
    17     7     8   ar
    18     7    39    1
    19     8     9   ar
    20     8    40    1
    21     9    10   ar
    22     9    41    1
    23    10    11   ar
    24    10    42    1
    25    11    12    1
    26    12    13    1
    27    12    43    1
    28    12    44    1
    29    13    14   am
    30    13    45    1
    31    14    15    2
    32    14    16    1
    33    16    17    1
    34    16    46    1
    35    16    47    1
    36    17    18    1
    37    17    27    1
    38    18    19    1
    39    18    48    1
    40    18    49    1
    41    19    25   ar
    42    19    20   ar
    43    20    21   ar
    44    20    50    1
    45    21    22   ar
    46    21    51    1
    47    22    23    1
    48    22    24   ar
    49    24    25   ar
    50    24    52    1
    51    25    26    1
    52    27    29    1
    53    27    28    1
    54    27    53    1
    55    28    29    1
    56    28    54    1
    57    28    55    1
    58    29    56    1
    59    29    57    1
@<TRIPOS>SUBSTRUCTURE
     1 ZINC000532153088        1 TEMP              0 ****  ****    0 ROOT


##########                                Name:    ZINC001181473921
##########                DOCK_Rotatable_Bonds:                   9
##########                         Heavy_Atoms:                  24
##########                    Molecular_Weight:             357.431
##########                DOCK_Rotatable_Bonds:                   9
##########                       Formal_Charge:        -5.96046e-08
##########                     HBond_Acceptors:                   9
##########                        HBond_Donors:                   4
##########                         Heavy_Atoms:                  24
##########                          Grid_Score:          -30.769485
##########                     Grid_vdw_energy:          -30.384920
##########                      Grid_es_energy:           -0.384565
##########           Internal_energy_repulsive:           13.986174

@<TRIPOS>MOLECULE
ZINC001181473921
 47 48 1 0 0
SMALL
USER_CHARGES


@<TRIPOS>ATOM
      1 C1         -6.8971    3.2011   53.7367 C.3     1  ZINC001181473921   -0.1300
      2 C2         -6.4890    2.1989   52.6880 C.2     1  ZINC001181473921    0.1900
      3 C3         -5.5136    2.5139   51.8092 C.2     1  ZINC001181473921   -0.2400
      4 C4         -5.1274    1.5805   50.8267 C.2     1  ZINC001181473921    0.2500
      5 O5         -4.1502    1.8816   49.9383 O.3     1  ZINC001181473921   -0.4600
      6 C6         -5.7611    0.3524   50.7838 C.2     1  ZINC001181473921   -0.3700
      7 C7         -6.7667    0.0718   51.7162 C.2     1  ZINC001181473921    0.5300
      8 O8         -7.3357   -1.0085   51.6919 O.2     1  ZINC001181473921   -0.5500
      9 N9         -7.1038    0.9878   52.6429 N.am    1  ZINC001181473921   -0.5000
     10 C10        -8.1580    0.6783   53.6119 C.3     1  ZINC001181473921    0.1000
     11 C11        -9.5191    1.0523   53.0216 C.3     1  ZINC001181473921   -0.1600
     12 C12       -10.5848    0.8917   54.0750 C.2     1  ZINC001181473921    0.5200
     13 O13       -11.6567    1.4435   53.9422 O.2     1  ZINC001181473921   -0.5300
     14 N14       -10.3469    0.1350   55.1646 N.am    1  ZINC001181473921   -0.7200
     15 C15       -11.3823   -0.0196   56.1894 C.3     1  ZINC001181473921    0.1400
     16 H16       -12.0404    0.8492   56.2056 H       1  ZINC001181473921    0.1000
     17 C17       -10.7457   -0.2520   57.5822 C.3     1  ZINC001181473921   -0.1300
     18 C18       -11.8446   -0.9798   58.3837 C.3     1  ZINC001181473921   -0.1500
     19 C19       -12.7631   -1.6596   57.3532 C.3     1  ZINC001181473921   -0.0800
     20 H20       -13.7777   -1.2714   57.4438 H       1  ZINC001181473921    0.0900
     21 C21       -12.7609   -3.1744   57.5679 C.3     1  ZINC001181473921   -0.6200
     22 S22       -14.2910   -3.8824   56.8986 S.o2    1  ZINC001181473921    2.6100
     23 N23       -15.4807   -3.3207   57.9041 N.am    1  ZINC001181473921   -1.2500
     24 O24       -14.5972   -3.3052   55.6366 O.2     1  ZINC001181473921   -0.9600
     25 O25       -14.3114   -5.2911   57.0840 O.2     1  ZINC001181473921   -0.9600
     26 C26       -12.1936   -1.3186   55.9584 C.3     1  ZINC001181473921   -0.1200
     27 H27        -6.8128    2.7481   54.7245 H       1  ZINC001181473921    0.0900
     28 H28        -6.2448    4.0726   53.6797 H       1  ZINC001181473921    0.1000
     29 H29        -7.9287    3.5077   53.5644 H       1  ZINC001181473921    0.0900
     30 H30        -5.0308    3.4788   51.8590 H       1  ZINC001181473921    0.1500
     31 H31        -3.4526    2.4467   50.2975 H       1  ZINC001181473921    0.4100
     32 H32        -5.4841   -0.3805   50.0405 H       1  ZINC001181473921    0.1500
     33 H33        -8.1411   -0.3876   53.8393 H       1  ZINC001181473921    0.1000
     34 H34        -7.9897    1.2475   54.5262 H       1  ZINC001181473921    0.1100
     35 H35        -9.4961    2.0881   52.6830 H       1  ZINC001181473921    0.1100
     36 H36        -9.7410    0.3990   52.1778 H       1  ZINC001181473921    0.1000
     37 H37        -9.4901   -0.3072   55.2702 H       1  ZINC001181473921    0.4000
     38 H38        -9.8580   -0.8786   57.4961 H       1  ZINC001181473921    0.0700
     39 H39       -10.4979    0.6998   58.0520 H       1  ZINC001181473921    0.0800
     40 H40       -11.3966   -1.7291   59.0363 H       1  ZINC001181473921    0.0900
     41 H41       -12.4134   -0.2617   58.9745 H       1  ZINC001181473921    0.0800
     42 H42       -11.9037   -3.6126   57.0566 H       1  ZINC001181473921    0.1400
     43 H43       -12.6970   -3.3901   58.6345 H       1  ZINC001181473921    0.1400
     44 H44       -16.4055   -3.5673   57.7464 H       1  ZINC001181473921    0.4100
     45 H45       -15.2529   -2.7451   58.6510 H       1  ZINC001181473921    0.4200
     46 H46       -13.0021   -1.1480   55.2476 H       1  ZINC001181473921    0.0800
     47 H47       -11.5386   -2.1164   55.6084 H       1  ZINC001181473921    0.0800
@<TRIPOS>BOND
     1     1     2    1
     2     1    27    1
     3     1    28    1
     4     1    29    1
     5     2     9    1
     6     2     3    2
     7     3     4    1
     8     3    30    1
     9     4     5    1
    10     4     6    2
    11     5    31    1
    12     6     7    1
    13     6    32    1
    14     7     8    2
    15     7     9   am
    16     9    10    1
    17    10    11    1
    18    10    33    1
    19    10    34    1
    20    11    12    1
    21    11    35    1
    22    11    36    1
    23    12    13    2
    24    12    14   am
    25    14    15    1
    26    14    37    1
    27    15    16    1
    28    15    26    1
    29    15    17    1
    30    17    18    1
    31    17    38    1
    32    17    39    1
    33    18    19    1
    34    18    40    1
    35    18    41    1
    36    19    20    1
    37    19    21    1
    38    19    26    1
    39    21    22    1
    40    21    42    1
    41    21    43    1
    42    22    23   am
    43    22    24    2
    44    22    25    2
    45    23    44    1
    46    23    45    1
    47    26    46    1
    48    26    47    1
@<TRIPOS>SUBSTRUCTURE
     1 ZINC001181473921        1 TEMP              0 ****  ****    0 ROOT


##########                                Name:    ZINC001312809190
##########                DOCK_Rotatable_Bonds:                   6
##########                         Heavy_Atoms:                  29
##########                    Molecular_Weight:             395.501
##########                DOCK_Rotatable_Bonds:                   6
##########                       Formal_Charge:           0.0199995
##########                     HBond_Acceptors:                   6
##########                        HBond_Donors:                   1
##########                         Heavy_Atoms:                  29
##########                          Grid_Score:          -30.728743
##########                     Grid_vdw_energy:          -29.880377
##########                      Grid_es_energy:           -0.848365
##########           Internal_energy_repulsive:           30.600750

@<TRIPOS>MOLECULE
ZINC001312809190
 58 61 1 0 0
SMALL
USER_CHARGES


@<TRIPOS>ATOM
      1 C1          4.5193   -0.3781   57.4064 C.3     1  ZINC001312809190    0.0300
      2 O2          3.2522   -0.1547   58.0283 O.3     1  ZINC001312809190   -0.3200
      3 C3          2.9001    1.1364   58.2646 C.ar    1  ZINC001312809190    0.1300
      4 C4          3.7384    2.1686   57.8700 C.ar    1  ZINC001312809190   -0.2100
      5 C5          3.3779    3.4804   58.1109 C.ar    1  ZINC001312809190   -0.0800
      6 C6          2.1830    3.7647   58.7452 C.ar    1  ZINC001312809190   -0.1300
      7 C7          1.3456    2.7374   59.1400 C.ar    1  ZINC001312809190   -0.0500
      8 C8          0.0438    3.0509   59.8316 C.3     1  ZINC001312809190    0.1200
      9 H9          0.1655    3.9410   60.4489 H       1  ZINC001312809190    0.0500
     10 C10        -0.3619    1.8693   60.7149 C.3     1  ZINC001312809190   -0.1400
     11 N11        -0.9996    3.2914   58.8259 N.3     1  ZINC001312809190   -0.5300
     12 C12        -0.8662    2.3618   57.6963 C.3     1  ZINC001312809190    0.0300
     13 C13        -2.0707    2.5216   56.7626 C.3     1  ZINC001312809190    0.1400
     14 N14        -2.1884    3.9396   56.3904 N.am    1  ZINC001312809190   -0.6300
     15 C15        -2.2925    4.3095   55.0986 C.2     1  ZINC001312809190    0.7100
     16 O16        -2.3890    5.4865   54.8091 O.2     1  ZINC001312809190   -0.5800
     17 N17        -2.2896    3.3747   54.1277 N.am    1  ZINC001312809190   -0.7300
     18 C18        -2.4028    3.7767   52.7236 C.3     1  ZINC001312809190    0.1800
     19 H19        -2.5908    4.8472   52.6408 H       1  ZINC001312809190    0.1200
     20 C20        -1.1624    3.3826   51.9452 C.ar    1  ZINC001312809190   -0.1900
     21 C21         0.1809    3.5175   52.2163 C.ar    1  ZINC001312809190   -0.0500
     22 C22         1.1190    3.0512   51.3120 C.ar    1  ZINC001312809190   -0.1500
     23 C23         0.7021    2.4511   50.1385 C.ar    1  ZINC001312809190   -0.0800
     24 C24        -0.6434    2.3182   49.8633 C.ar    1  ZINC001312809190   -0.1400
     25 C25        -1.5936    2.7876   50.7663 C.ar    1  ZINC001312809190    0.1100
     26 O26        -2.9527    2.7763   50.6883 O.3     1  ZINC001312809190   -0.2900
     27 C27        -3.5049    2.9646   52.0031 C.3     1  ZINC001312809190    0.0800
     28 H28        -3.6625    2.0056   52.4966 H       1  ZINC001312809190    0.0900
     29 C29        -4.8117    3.7572   51.9337 C.3     1  ZINC001312809190   -0.1500
     30 C30        -2.1901    4.9434   57.4656 C.3     1  ZINC001312809190    0.1200
     31 C31        -0.9810    4.6882   58.3716 C.3     1  ZINC001312809190    0.0400
     32 C32         1.6986    1.4246   58.8959 C.ar    1  ZINC001312809190   -0.1500
     33 H33         4.6761   -1.4488   57.2756 H       1  ZINC001312809190    0.1000
     34 H34         4.5383    0.1134   56.4337 H       1  ZINC001312809190    0.0600
     35 H35         5.3099    0.0306   58.0356 H       1  ZINC001312809190    0.0600
     36 H36         4.6725    1.9470   57.3751 H       1  ZINC001312809190    0.1300
     37 H37         4.0303    4.2844   57.8039 H       1  ZINC001312809190    0.1300
     38 H38         1.9030    4.7907   58.9329 H       1  ZINC001312809190    0.1300
     39 H39        -0.4836    0.9791   60.0976 H       1  ZINC001312809190    0.0700
     40 H40         0.4123    1.6908   61.4612 H       1  ZINC001312809190    0.0600
     41 H41        -1.3034    2.0961   61.2151 H       1  ZINC001312809190    0.0600
     42 H42         0.0502    2.5834   57.1491 H       1  ZINC001312809190    0.0400
     43 H43        -0.8287    1.3385   58.0698 H       1  ZINC001312809190    0.1000
     44 H44        -1.9218    1.9190   55.8666 H       1  ZINC001312809190    0.1000
     45 H45        -2.9772    2.2012   57.2762 H       1  ZINC001312809190    0.0700
     46 H46        -2.2125    2.4357   54.3587 H       1  ZINC001312809190    0.4000
     47 H47         0.5022    3.9873   53.1341 H       1  ZINC001312809190    0.1200
     48 H48         2.1731    3.1561   51.5222 H       1  ZINC001312809190    0.1300
     49 H49         1.4333    2.0848   49.4333 H       1  ZINC001312809190    0.1300
     50 H50        -0.9606    1.8485   48.9439 H       1  ZINC001312809190    0.1300
     51 H51        -5.5422    3.2027   51.3446 H       1  ZINC001312809190    0.0800
     52 H52        -5.1980    3.9099   52.9414 H       1  ZINC001312809190    0.0800
     53 H53        -4.6259    4.7239   51.4655 H       1  ZINC001312809190    0.0700
     54 H54        -2.1203    5.9419   57.0342 H       1  ZINC001312809190    0.0800
     55 H55        -3.1081    4.8558   58.0467 H       1  ZINC001312809190    0.0800
     56 H56        -1.0268    5.3521   59.2349 H       1  ZINC001312809190    0.0900
     57 H57        -0.0631    4.8774   57.8151 H       1  ZINC001312809190    0.0400
     58 H58         1.0441    0.6227   59.2042 H       1  ZINC001312809190    0.1300
@<TRIPOS>BOND
     1     1     2    1
     2     1    33    1
     3     1    34    1
     4     1    35    1
     5     2     3    1
     6     3    32   ar
     7     3     4   ar
     8     4     5   ar
     9     4    36    1
    10     5     6   ar
    11     5    37    1
    12     6     7   ar
    13     6    38    1
    14     7     8    1
    15     7    32   ar
    16     8     9    1
    17     8    10    1
    18     8    11    1
    19    10    39    1
    20    10    40    1
    21    10    41    1
    22    11    31    1
    23    11    12    1
    24    12    13    1
    25    12    42    1
    26    12    43    1
    27    13    14    1
    28    13    44    1
    29    13    45    1
    30    14    15   am
    31    14    30    1
    32    15    16    2
    33    15    17   am
    34    17    18    1
    35    17    46    1
    36    18    19    1
    37    18    27    1
    38    18    20    1
    39    20    25   ar
    40    20    21   ar
    41    21    22   ar
    42    21    47    1
    43    22    23   ar
    44    22    48    1
    45    23    24   ar
    46    23    49    1
    47    24    25   ar
    48    24    50    1
    49    25    26    1
    50    26    27    1
    51    27    28    1
    52    27    29    1
    53    29    51    1
    54    29    52    1
    55    29    53    1
    56    30    31    1
    57    30    54    1
    58    30    55    1
    59    31    56    1
    60    31    57    1
    61    32    58    1
@<TRIPOS>SUBSTRUCTURE
     1 ZINC001312809190        1 TEMP              0 ****  ****    0 ROOT


##########                                Name:    ZINC000949401225
##########                DOCK_Rotatable_Bonds:                   7
##########                         Heavy_Atoms:                  24
##########                    Molecular_Weight:             332.403
##########                DOCK_Rotatable_Bonds:                   7
##########                       Formal_Charge:                0.03
##########                     HBond_Acceptors:                   7
##########                        HBond_Donors:                   1
##########                         Heavy_Atoms:                  24
##########                          Grid_Score:          -30.720440
##########                     Grid_vdw_energy:          -28.800665
##########                      Grid_es_energy:           -1.919774
##########           Internal_energy_repulsive:           11.118030

@<TRIPOS>MOLECULE
ZINC000949401225
 48 50 1 0 0
SMALL
USER_CHARGES


@<TRIPOS>ATOM
      1 C1         -9.0458    1.4647   62.1448 C.3     1  ZINC000949401225    0.0700
      2 N2         -8.4440    1.1328   60.8511 N.pl3   1  ZINC000949401225   -0.4500
      3 C3         -8.0853   -0.1234   60.4572 C.2     1  ZINC000949401225   -0.0100
      4 C4         -7.5669   -0.0591   59.2179 C.2     1  ZINC000949401225   -0.1700
      5 C5         -7.6137    1.3532   58.8241 C.2     1  ZINC000949401225   -0.2400
      6 C6         -7.1583    1.9320   57.5488 C.2     1  ZINC000949401225    0.5900
      7 O7         -6.8232    1.2026   56.6352 O.2     1  ZINC000949401225   -0.5500
      8 N8         -7.1128    3.2701   57.3944 N.am    1  ZINC000949401225   -0.7300
      9 C9         -6.6580    3.8460   56.1265 C.3     1  ZINC000949401225    0.1200
     10 C10        -5.2470    4.4117   56.3001 C.3     1  ZINC000949401225    0.1200
     11 H11        -5.2307    5.3306   56.8860 H       1  ZINC000949401225    0.1000
     12 C12        -4.2239    3.3686   56.7705 C.3     1  ZINC000949401225   -0.1500
     13 C13        -3.2962    4.0976   55.7887 C.3     1  ZINC000949401225    0.1000
     14 N14        -4.4951    4.5072   55.0398 N.am    1  ZINC000949401225   -0.6400
     15 C15        -4.7788    4.8268   53.7615 C.2     1  ZINC000949401225    0.5500
     16 O16        -5.9100    5.1334   53.4498 O.2     1  ZINC000949401225   -0.5200
     17 C17        -3.6902    4.8031   52.7196 C.3     1  ZINC000949401225   -0.1400
     18 C18        -3.3691    3.3535   52.3505 C.3     1  ZINC000949401225    0.1500
     19 H19        -3.2600    2.7505   53.2520 H       1  ZINC000949401225    0.0900
     20 C20        -4.4816    2.7722   51.4499 C.3     1  ZINC000949401225   -0.1200
     21 C21        -3.6729    1.8591   50.4994 C.3     1  ZINC000949401225   -0.1600
     22 C22        -2.2836    2.4577   50.5029 C.2     1  ZINC000949401225    0.5200
     23 O23        -1.4221    2.2183   49.6835 O.2     1  ZINC000949401225   -0.5300
     24 N24        -2.1418    3.2936   51.5479 N.am    1  ZINC000949401225   -0.6200
     25 C25        -0.9212    4.0479   51.8434 C.3     1  ZINC000949401225    0.0900
     26 C26        -8.1711    2.0231   59.8782 C.2     1  ZINC000949401225    0.0800
     27 H27       -10.1311    1.3994   62.0682 H       1  ZINC000949401225    0.0800
     28 H28        -8.6921    0.7633   62.9006 H       1  ZINC000949401225    0.0900
     29 H29        -8.7617    2.4781   62.4284 H       1  ZINC000949401225    0.0900
     30 H30        -8.1990   -1.0225   61.0447 H       1  ZINC000949401225    0.1700
     31 H31        -7.1908   -0.8831   58.6298 H       1  ZINC000949401225    0.1500
     32 H32        -7.3811    3.8518   58.1227 H       1  ZINC000949401225    0.4000
     33 H33        -6.6473    3.0722   55.3590 H       1  ZINC000949401225    0.0700
     34 H34        -7.3356    4.6456   55.8267 H       1  ZINC000949401225    0.0900
     35 H35        -3.9339    3.4671   57.8165 H       1  ZINC000949401225    0.1000
     36 H36        -4.4643    2.3453   56.4822 H       1  ZINC000949401225    0.1000
     37 H37        -2.7595    4.9334   56.2378 H       1  ZINC000949401225    0.0900
     38 H38        -2.6425    3.4276   55.2301 H       1  ZINC000949401225    0.0800
     39 H39        -4.0256    5.3385   51.8315 H       1  ZINC000949401225    0.1000
     40 H40        -2.7961    5.2833   53.1174 H       1  ZINC000949401225    0.1000
     41 H41        -5.1942    2.1917   52.0359 H       1  ZINC000949401225    0.1000
     42 H42        -4.9871    3.5625   50.8952 H       1  ZINC000949401225    0.0800
     43 H43        -3.6493    0.8379   50.8799 H       1  ZINC000949401225    0.1100
     44 H44        -4.0963    1.8834   49.4953 H       1  ZINC000949401225    0.1000
     45 H45        -0.1944    3.8896   51.0466 H       1  ZINC000949401225    0.0800
     46 H46        -1.1581    5.1096   51.9133 H       1  ZINC000949401225    0.0600
     47 H47        -0.5029    3.7058   52.7900 H       1  ZINC000949401225    0.0600
     48 H48        -8.3551    3.0863   59.9251 H       1  ZINC000949401225    0.1800
@<TRIPOS>BOND
     1     1     2    1
     2     1    27    1
     3     1    28    1
     4     1    29    1
     5     2    26    1
     6     2     3    1
     7     3     4    2
     8     3    30    1
     9     4     5    1
    10     4    31    1
    11     5     6    1
    12     5    26    2
    13     6     7    2
    14     6     8   am
    15     8     9    1
    16     8    32    1
    17     9    10    1
    18     9    33    1
    19     9    34    1
    20    10    11    1
    21    10    14    1
    22    10    12    1
    23    12    13    1
    24    12    35    1
    25    12    36    1
    26    13    14    1
    27    13    37    1
    28    13    38    1
    29    14    15   am
    30    15    16    2
    31    15    17    1
    32    17    18    1
    33    17    39    1
    34    17    40    1
    35    18    19    1
    36    18    24    1
    37    18    20    1
    38    20    21    1
    39    20    41    1
    40    20    42    1
    41    21    22    1
    42    21    43    1
    43    21    44    1
    44    22    23    2
    45    22    24   am
    46    24    25    1
    47    25    45    1
    48    25    46    1
    49    25    47    1
    50    26    48    1
@<TRIPOS>SUBSTRUCTURE
     1 ZINC000949401225        1 TEMP              0 ****  ****    0 ROOT


##########                                Name:    ZINC000012979878
##########                DOCK_Rotatable_Bonds:                   7
##########                         Heavy_Atoms:                  26
##########                    Molecular_Weight:             388.874
##########                DOCK_Rotatable_Bonds:                   7
##########                       Formal_Charge:          -0.0100003
##########                     HBond_Acceptors:                   7
##########                        HBond_Donors:                   1
##########                         Heavy_Atoms:                  26
##########                          Grid_Score:          -30.715279
##########                     Grid_vdw_energy:          -28.541723
##########                      Grid_es_energy:           -2.173556
##########           Internal_energy_repulsive:           11.563418

@<TRIPOS>MOLECULE
ZINC000012979878
 43 45 1 0 0
SMALL
USER_CHARGES


@<TRIPOS>ATOM
      1 C1        -12.4131   -0.7554   55.3810 C.3     1  <0>         0.0300
      2 O2        -11.1989   -0.6253   54.6387 O.3     1  <0>        -0.3100
      3 C3        -10.3158    0.3174   55.0607 C.ar    1  <0>         0.1500
      4 C4        -10.6309    1.1298   56.1408 C.ar    1  <0>        -0.2200
      5 C5         -9.7340    2.0895   56.5709 C.ar    1  <0>        -0.0600
      6 C6         -8.5214    2.2428   55.9278 C.ar    1  <0>        -0.1800
      7 C7         -8.2005    1.4322   54.8458 C.ar    1  <0>         0.1800
      8 N8         -6.9728    1.5874   54.1946 N.am    1  <0>        -0.6700
      9 C9         -6.9318    2.0889   52.9442 C.2     1  <0>         0.6000
     10 O10        -7.9633    2.4067   52.3820 O.2     1  <0>        -0.4900
     11 C11        -5.6443    2.2517   52.2613 C.2     1  <0>        -0.3000
     12 C12        -4.6674    3.1322   52.5950 C.2     1  <0>         0.1600
     13 C13        -4.7881    4.0889   53.7531 C.3     1  <0>        -0.0900
     14 N14        -3.6104    3.0782   51.8241 N.2     1  <0>        -0.4500
     15 C15        -3.6206    2.2148   50.8599 C.2     1  <0>         0.0600
     16 C16        -2.4975    2.0109   49.8759 C.3     1  <0>         0.1300
     17 O17        -1.2732    2.4762   50.4474 O.3     1  <0>        -0.3000
     18 C18        -0.1205    1.9851   49.9206 C.ar    1  <0>         0.1300
     19 C19        -0.0977    1.5170   48.6150 C.ar    1  <0>        -0.2000
     20 C20         1.0748    1.0182   48.0814 C.ar    1  <0>        -0.0700
     21 C21         2.2260    0.9849   48.8485 C.ar    1  <0>        -0.0700
     22 Cl22        3.6981    0.3571   48.1759 Cl      1  <0>        -0.0700
     23 C23         2.2052    1.4517   50.1508 C.ar    1  <0>        -0.0700
     24 C24         1.0361    1.9566   50.6861 C.ar    1  <0>        -0.1300
     25 S25        -5.0855    1.3335   50.8650 S.3     1  <0>         0.2000
     26 C26        -9.0975    0.4644   54.4162 C.ar    1  <0>        -0.1500
     27 H27       -12.1813   -1.0130   56.4145 H       1  <0>         0.0600
     28 H28       -12.9577    0.1884   55.3551 H       1  <0>         0.0600
     29 H29       -13.0265   -1.5410   54.9395 H       1  <0>         0.1000
     30 H30       -11.5784    1.0123   56.6457 H       1  <0>         0.1300
     31 H31        -9.9820    2.7209   57.4112 H       1  <0>         0.1300
     32 H32        -7.8223    2.9934   56.2659 H       1  <0>         0.1300
     33 H33        -6.1506    1.3340   54.6426 H       1  <0>         0.4100
     34 H34        -4.3977    3.6180   54.6554 H       1  <0>         0.0900
     35 H35        -4.2175    4.9925   53.5390 H       1  <0>         0.0800
     36 H36        -5.8362    4.3478   53.9028 H       1  <0>         0.1000
     37 H37        -2.4087    0.9504   49.6407 H       1  <0>         0.0900
     38 H38        -2.7079    2.5692   48.9636 H       1  <0>         0.1000
     39 H39        -0.9961    1.5421   48.0162 H       1  <0>         0.1400
     40 H40         1.0930    0.6537   47.0649 H       1  <0>         0.1400
     41 H41         3.1048    1.4252   50.7479 H       1  <0>         0.1400
     42 H42         1.0203    2.3208   51.7027 H       1  <0>         0.1400
     43 H43        -8.8504   -0.1673   53.5757 H       1  <0>         0.1400
@<TRIPOS>BOND
     1     1     2    1
     2     1    27    1
     3     1    28    1
     4     1    29    1
     5     2     3    1
     6     3    26   ar
     7     3     4   ar
     8     4     5   ar
     9     4    30    1
    10     5     6   ar
    11     5    31    1
    12     6     7   ar
    13     6    32    1
    14     7     8    1
    15     7    26   ar
    16     8     9   am
    17     8    33    1
    18     9    10    2
    19     9    11    1
    20    11    25    1
    21    11    12    2
    22    12    13    1
    23    12    14    1
    24    13    34    1
    25    13    35    1
    26    13    36    1
    27    14    15    2
    28    15    16    1
    29    15    25    1
    30    16    17    1
    31    16    37    1
    32    16    38    1
    33    17    18    1
    34    18    24   ar
    35    18    19   ar
    36    19    20   ar
    37    19    39    1
    38    20    21   ar
    39    20    40    1
    40    21    22    1
    41    21    23   ar
    42    23    24   ar
    43    23    41    1
    44    24    42    1
    45    26    43    1
@<TRIPOS>SUBSTRUCTURE
     1 <0>         1 TEMP              0 ****  ****    0 ROOT


##########                                Name:    ZINC000489403631
##########                DOCK_Rotatable_Bonds:                   7
##########                         Heavy_Atoms:                  28
##########                    Molecular_Weight:             381.391
##########                DOCK_Rotatable_Bonds:                   7
##########                       Formal_Charge:          -0.0300003
##########                     HBond_Acceptors:                   9
##########                        HBond_Donors:                   1
##########                         Heavy_Atoms:                  28
##########                          Grid_Score:          -30.706749
##########                     Grid_vdw_energy:          -30.822039
##########                      Grid_es_energy:            0.115289
##########           Internal_energy_repulsive:           15.566028

@<TRIPOS>MOLECULE
ZINC000489403631
 47 49 1 0 0
SMALL
USER_CHARGES


@<TRIPOS>ATOM
      1 C1         -8.1794    1.4286   58.0932 C.3     1  ZINC000489403631   -0.1100
      2 C2         -8.5654    1.5308   56.6402 C.ar    1  ZINC000489403631   -0.0800
      3 C3         -7.6803    2.0679   55.7270 C.ar    1  ZINC000489403631   -0.0900
      4 C4         -8.0362    2.1621   54.3879 C.ar    1  ZINC000489403631    0.1200
      5 N5         -7.1382    2.7067   53.4608 N.am    1  ZINC000489403631   -0.6600
      6 C6         -6.5182    1.9051   52.5723 C.2     1  ZINC000489403631    0.5100
      7 O7         -6.7376    0.7122   52.5754 O.2     1  ZINC000489403631   -0.4600
      8 C8         -5.5521    2.4910   51.5750 C.3     1  ZINC000489403631    0.1700
      9 C9         -5.1621    1.4208   50.5534 C.3     1  ZINC000489403631   -0.1700
     10 C10        -6.2140    3.6671   50.8541 C.3     1  ZINC000489403631   -0.1700
     11 N11        -4.3527    2.9592   52.2739 N.pl3   1  ZINC000489403631   -0.3400
     12 C12        -3.1034    3.0016   51.7656 C.2     1  ZINC000489403631    0.1500
     13 C13        -2.2847    3.4944   52.7237 C.2     1  ZINC000489403631   -0.1900
     14 N14        -0.8263    3.7121   52.5954 N.pl3   1  ZINC000489403631    0.0700
     15 O15        -0.1934    4.1654   53.5322 O.2     1  ZINC000489403631   -0.1700
     16 O16        -0.2590    3.4380   51.5529 O.2     1  ZINC000489403631   -0.1600
     17 C17        -3.0603    3.7623   53.8564 C.2     1  ZINC000489403631    0.1000
     18 N18        -4.3011    3.4475   53.5858 N.2     1  ZINC000489403631   -0.2200
     19 C19        -9.2822    1.7159   53.9684 C.ar    1  ZINC000489403631   -0.1100
     20 C20       -10.1668    1.1787   54.8828 C.ar    1  ZINC000489403631   -0.1700
     21 C21        -9.8084    1.0797   56.2193 C.ar    1  ZINC000489403631    0.1000
     22 O22       -10.6797    0.5508   57.1190 O.3     1  ZINC000489403631   -0.2500
     23 C23       -10.7923   -0.8004   57.1785 C.ar    1  ZINC000489403631    0.1400
     24 C24       -11.5109   -1.4129   58.2027 C.ar    1  ZINC000489403631   -0.2000
     25 C25       -11.6018   -2.7893   58.2279 C.ar    1  ZINC000489403631    0.1200
     26 N26       -11.0190   -3.5227   57.2985 N.ar    1  ZINC000489403631   -0.4900
     27 C27       -10.3299   -2.9796   56.3127 C.ar    1  ZINC000489403631    0.1200
     28 C28       -10.1970   -1.6099   56.2138 C.ar    1  ZINC000489403631   -0.1800
     29 H29        -7.6899    0.4713   58.2727 H       1  ZINC000489403631    0.0700
     30 H30        -7.4955    2.2391   58.3454 H       1  ZINC000489403631    0.0700
     31 H31        -9.0732    1.5014   58.7127 H       1  ZINC000489403631    0.0700
     32 H32        -6.7113    2.4153   56.0540 H       1  ZINC000489403631    0.1500
     33 H33        -6.9628    3.6607   53.4584 H       1  ZINC000489403631    0.4100
     34 H34        -6.0545    1.0725   50.0334 H       1  ZINC000489403631    0.1000
     35 H35        -4.4634    1.8446   49.8321 H       1  ZINC000489403631    0.0900
     36 H36        -4.6905    0.5830   51.0670 H       1  ZINC000489403631    0.0800
     37 H37        -6.4919    4.4295   51.5818 H       1  ZINC000489403631    0.0800
     38 H38        -5.5153    4.0908   50.1328 H       1  ZINC000489403631    0.0900
     39 H39        -7.1064    3.3187   50.3341 H       1  ZINC000489403631    0.0900
     40 H40        -2.8094    2.6965   50.7721 H       1  ZINC000489403631    0.2000
     41 H41        -2.6984    4.1642   54.7911 H       1  ZINC000489403631    0.2100
     42 H42        -9.5597    1.7891   52.9272 H       1  ZINC000489403631    0.1300
     43 H43       -11.1360    0.8315   54.5565 H       1  ZINC000489403631    0.1300
     44 H44       -11.9899   -0.8185   58.9666 H       1  ZINC000489403631    0.1400
     45 H45       -12.1567   -3.2726   59.0185 H       1  ZINC000489403631    0.1600
     46 H46        -9.8676   -3.6151   55.5718 H       1  ZINC000489403631    0.1700
     47 H47        -9.6319   -1.1717   55.4045 H       1  ZINC000489403631    0.1500
@<TRIPOS>BOND
     1     1     2    1
     2     1    29    1
     3     1    30    1
     4     1    31    1
     5     2    21   ar
     6     2     3   ar
     7     3     4   ar
     8     3    32    1
     9     4     5    1
    10     4    19   ar
    11     5     6   am
    12     5    33    1
    13     6     7    2
    14     6     8    1
    15     8     9    1
    16     8    10    1
    17     8    11    1
    18     9    34    1
    19     9    35    1
    20     9    36    1
    21    10    37    1
    22    10    38    1
    23    10    39    1
    24    11    18    1
    25    11    12    1
    26    12    13    2
    27    12    40    1
    28    13    14    1
    29    13    17    1
    30    14    15    2
    31    14    16    2
    32    17    18    2
    33    17    41    1
    34    19    20   ar
    35    19    42    1
    36    20    21   ar
    37    20    43    1
    38    21    22    1
    39    22    23    1
    40    23    28   ar
    41    23    24   ar
    42    24    25   ar
    43    24    44    1
    44    25    26   ar
    45    25    45    1
    46    26    27   ar
    47    27    28   ar
    48    27    46    1
    49    28    47    1
@<TRIPOS>SUBSTRUCTURE
     1 ZINC000489403631        1 TEMP              0 ****  ****    0 ROOT


##########                                Name:    ZINC000409064708
##########                DOCK_Rotatable_Bonds:                   8
##########                         Heavy_Atoms:                  29
##########                    Molecular_Weight:             415.442
##########                DOCK_Rotatable_Bonds:                   8
##########                       Formal_Charge:                0.03
##########                     HBond_Acceptors:                   8
##########                        HBond_Donors:                   0
##########                         Heavy_Atoms:                  29
##########                          Grid_Score:          -30.695057
##########                     Grid_vdw_energy:          -30.192816
##########                      Grid_es_energy:           -0.502242
##########           Internal_energy_repulsive:           20.282064

@<TRIPOS>MOLECULE
ZINC000409064708
 47 49 1 0 0
SMALL
USER_CHARGES


@<TRIPOS>ATOM
      1 C1        -12.1143    1.1820   51.4492 C.3     1  ZINC000409064708    0.0400
      2 O2        -11.0632    1.6097   52.3550 O.3     1  ZINC000409064708   -0.3500
      3 C3        -10.8519    0.8534   53.4436 C.2     1  ZINC000409064708    0.4600
      4 O4        -11.5326   -0.1251   53.6410 O.2     1  ZINC000409064708   -0.4900
      5 C5         -9.7653    1.2248   54.4197 C.3     1  ZINC000409064708    0.1400
      6 H6         -9.9943    2.1919   54.8675 H       1  ZINC000409064708    0.1500
      7 C7         -9.6802    0.1619   55.5168 C.3     1  ZINC000409064708   -0.1600
      8 N8         -8.4828    1.3040   53.7159 N.am    1  ZINC000409064708   -0.5600
      9 C9         -8.0853    0.3009   52.9248 C.2     1  ZINC000409064708    0.5400
     10 O10        -8.6909   -0.7303   52.7028 O.2     1  ZINC000409064708   -0.4200
     11 S11        -6.5080    0.7624   52.2614 S.3     1  ZINC000409064708   -0.0100
     12 C12        -6.4535    2.3254   53.1007 C.2     1  ZINC000409064708   -0.2400
     13 C13        -5.4754    3.2650   53.0529 C.2     1  ZINC000409064708    0.0900
     14 C14        -4.2806    3.0398   52.2294 C.ar    1  ZINC000409064708   -0.1400
     15 C15        -3.0047    3.2078   52.7815 C.ar    1  ZINC000409064708    0.0000
     16 C16        -1.8880    2.9954   52.0049 C.ar    1  ZINC000409064708   -0.1600
     17 C17        -2.0254    2.6153   50.6748 C.ar    1  ZINC000409064708    0.1600
     18 O18        -0.9207    2.4071   49.9135 O.3     1  ZINC000409064708   -0.3000
     19 C19         0.3474    2.5871   50.5473 C.3     1  ZINC000409064708    0.1000
     20 C20         1.4400    2.0943   49.6339 C.ar    1  ZINC000409064708   -0.0700
     21 C21         1.7496    0.7479   49.5908 C.ar    1  ZINC000409064708   -0.1000
     22 C22         2.7519    0.2943   48.7533 C.ar    1  ZINC000409064708   -0.0900
     23 C23         3.4451    1.1868   47.9581 C.ar    1  ZINC000409064708   -0.1400
     24 C24         3.1354    2.5359   48.0000 C.ar    1  ZINC000409064708    0.1000
     25 F25         3.8126    3.4094   47.2230 F       1  ZINC000409064708   -0.1400
     26 C26         2.1282    2.9881   48.8351 C.ar    1  ZINC000409064708   -0.1300
     27 C27        -3.2895    2.4471   50.1215 C.ar    1  ZINC000409064708   -0.2200
     28 C28        -4.4129    2.6507   50.8907 C.ar    1  ZINC000409064708   -0.0400
     29 C29        -7.7122    2.3699   53.8536 C.2     1  ZINC000409064708    0.5600
     30 O30        -8.0205    3.3138   54.5573 O.2     1  ZINC000409064708   -0.4600
     31 H31       -11.8862    0.1846   51.0731 H       1  ZINC000409064708    0.0700
     32 H32       -13.0657    1.1611   51.9806 H       1  ZINC000409064708    0.0700
     33 H33       -12.1799    1.8790   50.6138 H       1  ZINC000409064708    0.1100
     34 H34       -10.6343    0.1030   56.0405 H       1  ZINC000409064708    0.1000
     35 H35        -9.4513   -0.8051   55.0690 H       1  ZINC000409064708    0.0800
     36 H36        -8.8943    0.4305   56.2227 H       1  ZINC000409064708    0.0800
     37 H37        -5.5757    4.1783   53.6206 H       1  ZINC000409064708    0.1600
     38 H38        -2.8969    3.5038   53.8145 H       1  ZINC000409064708    0.1300
     39 H39        -0.9036    3.1246   52.4297 H       1  ZINC000409064708    0.1400
     40 H40         0.5006    3.6451   50.7593 H       1  ZINC000409064708    0.0800
     41 H41         0.3709    2.0225   51.4794 H       1  ZINC000409064708    0.0800
     42 H42         1.2086    0.0497   50.2122 H       1  ZINC000409064708    0.1300
     43 H43         2.9933   -0.7578   48.7207 H       1  ZINC000409064708    0.1400
     44 H44         4.2285    0.8324   47.3045 H       1  ZINC000409064708    0.1400
     45 H45         1.8855    4.0400   48.8684 H       1  ZINC000409064708    0.1400
     46 H46        -3.3904    2.1520   49.0876 H       1  ZINC000409064708    0.1300
     47 H47        -5.3946    2.5197   50.4599 H       1  ZINC000409064708    0.1300
@<TRIPOS>BOND
     1     1     2    1
     2     1    31    1
     3     1    32    1
     4     1    33    1
     5     2     3    1
     6     3     4    2
     7     3     5    1
     8     5     6    1
     9     5     7    1
    10     5     8    1
    11     7    34    1
    12     7    35    1
    13     7    36    1
    14     8    29   am
    15     8     9   am
    16     9    10    2
    17     9    11    1
    18    11    12    1
    19    12    13    2
    20    12    29    1
    21    13    14    1
    22    13    37    1
    23    14    28   ar
    24    14    15   ar
    25    15    16   ar
    26    15    38    1
    27    16    17   ar
    28    16    39    1
    29    17    18    1
    30    17    27   ar
    31    18    19    1
    32    19    20    1
    33    19    40    1
    34    19    41    1
    35    20    26   ar
    36    20    21   ar
    37    21    22   ar
    38    21    42    1
    39    22    23   ar
    40    22    43    1
    41    23    24   ar
    42    23    44    1
    43    24    25    1
    44    24    26   ar
    45    26    45    1
    46    27    28   ar
    47    27    46    1
    48    28    47    1
    49    29    30    2
@<TRIPOS>SUBSTRUCTURE
     1 ZINC000409064708        1 TEMP              0 ****  ****    0 ROOT


##########                                Name:    ZINC000465392830
##########                DOCK_Rotatable_Bonds:                   8
##########                         Heavy_Atoms:                  29
##########                    Molecular_Weight:             419.588
##########                DOCK_Rotatable_Bonds:                   8
##########                       Formal_Charge:           0.0199996
##########                     HBond_Acceptors:                   7
##########                        HBond_Donors:                   0
##########                         Heavy_Atoms:                  29
##########                          Grid_Score:          -30.686420
##########                     Grid_vdw_energy:          -28.705254
##########                      Grid_es_energy:           -1.981166
##########           Internal_energy_repulsive:           25.109249

@<TRIPOS>MOLECULE
ZINC000465392830
 62 64 1 0 0
SMALL
USER_CHARGES


@<TRIPOS>ATOM
      1 C1        -10.8568    4.3336   58.6308 C.3     1  ZINC000465392830    0.0400
      2 O2         -9.6823    3.8112   57.9554 O.3     1  ZINC000465392830   -0.3600
      3 C3         -9.8925    2.9889   56.9155 C.2     1  ZINC000465392830    0.4600
      4 O4        -11.0206    2.7138   56.5814 O.2     1  ZINC000465392830   -0.4900
      5 C5         -8.7215    2.4088   56.1650 C.3     1  ZINC000465392830    0.1500
      6 H6         -9.0677    1.6374   55.4771 H       1  ZINC000465392830    0.1100
      7 C7         -7.9958    3.5231   55.3820 C.3     1  ZINC000465392830   -0.1100
      8 C8         -6.5004    3.1392   55.5367 C.3     1  ZINC000465392830   -0.0900
      9 H9         -6.2138    2.3827   54.8060 H       1  ZINC000465392830    0.1000
     10 C10        -5.6030    4.3733   55.4249 C.3     1  ZINC000465392830   -0.0800
     11 C11        -4.1396    3.9556   55.5821 C.3     1  ZINC000465392830   -0.1200
     12 C12        -3.2421    5.1896   55.4703 C.3     1  ZINC000465392830   -0.1200
     13 C13        -3.4417    5.8431   54.1013 C.3     1  ZINC000465392830   -0.1200
     14 C14        -4.9051    6.2608   53.9441 C.3     1  ZINC000465392830   -0.1200
     15 C15        -5.8026    5.0267   54.0559 C.3     1  ZINC000465392830   -0.1200
     16 C16        -6.4747    2.5612   56.9736 C.3     1  ZINC000465392830    0.1000
     17 N17        -7.7544    1.8360   57.1129 N.am    1  ZINC000465392830   -0.6100
     18 C18        -7.9939    0.8223   57.9681 C.2     1  ZINC000465392830    0.5400
     19 O19        -7.1150    0.4318   58.7070 O.2     1  ZINC000465392830   -0.5300
     20 C20        -9.3538    0.1742   58.0063 C.3     1  ZINC000465392830   -0.1300
     21 C21        -9.2865   -1.1036   58.8454 C.3     1  ZINC000465392830   -0.0600
     22 C22       -10.6830   -1.5484   59.1961 C.ar    1  ZINC000465392830   -0.2000
     23 C23       -11.3758   -2.4217   58.3720 C.ar    1  ZINC000465392830    0.2000
     24 C24       -10.7416   -2.9427   57.1082 C.3     1  ZINC000465392830   -0.1100
     25 N25       -12.5999   -2.7924   58.7086 N.ar    1  ZINC000465392830   -0.5000
     26 C26       -13.1640   -2.3386   59.8190 C.ar    1  ZINC000465392830    0.3000
     27 S27       -14.7968   -2.8587   60.2291 S.3     1  ZINC000465392830    0.0000
     28 C28       -15.4232   -3.2585   58.5787 C.3     1  ZINC000465392830   -0.1400
     29 N29       -12.5284   -1.5032   60.6285 N.ar    1  ZINC000465392830   -0.5300
     30 C30       -11.3002   -1.0976   60.3526 C.ar    1  ZINC000465392830    0.2000
     31 C31       -10.5847   -0.1476   61.2781 C.3     1  ZINC000465392830   -0.1100
     32 H32       -11.4590    4.9039   57.9235 H       1  ZINC000465392830    0.0600
     33 H33       -11.4465    3.5065   59.0261 H       1  ZINC000465392830    0.0600
     34 H34       -10.5464    4.9825   59.4497 H       1  ZINC000465392830    0.1000
     35 H35        -8.2904    3.5116   54.3326 H       1  ZINC000465392830    0.1000
     36 H36        -8.1917    4.4982   55.8280 H       1  ZINC000465392830    0.0800
     37 H37        -5.8641    5.0846   56.2084 H       1  ZINC000465392830    0.0800
     38 H38        -3.9974    3.4901   56.5574 H       1  ZINC000465392830    0.0600
     39 H39        -3.8785    3.2443   54.7985 H       1  ZINC000465392830    0.0700
     40 H40        -3.5032    5.9010   56.2540 H       1  ZINC000465392830    0.0600
     41 H41        -2.1995    4.8921   55.5824 H       1  ZINC000465392830    0.0600
     42 H42        -2.8023    6.7223   54.0217 H       1  ZINC000465392830    0.0600
     43 H43        -3.1806    5.1318   53.3177 H       1  ZINC000465392830    0.0600
     44 H44        -5.1662    6.9721   54.7277 H       1  ZINC000465392830    0.0600
     45 H45        -5.0474    6.7263   52.9688 H       1  ZINC000465392830    0.0600
     46 H46        -5.5415    4.3154   53.2722 H       1  ZINC000465392830    0.0700
     47 H47        -6.8452    5.3243   53.9438 H       1  ZINC000465392830    0.0600
     48 H48        -5.6364    1.8746   57.0914 H       1  ZINC000465392830    0.0900
     49 H49        -6.4123    3.3667   57.7054 H       1  ZINC000465392830    0.0800
     50 H50       -10.0723    0.8631   58.4507 H       1  ZINC000465392830    0.1000
     51 H51        -9.6671   -0.0732   56.9921 H       1  ZINC000465392830    0.1000
     52 H52        -8.7881   -1.8871   58.2746 H       1  ZINC000465392830    0.0900
     53 H53        -8.7268   -0.9085   59.7601 H       1  ZINC000465392830    0.0900
     54 H54       -10.2041   -3.8658   57.3252 H       1  ZINC000465392830    0.0900
     55 H55       -11.5165   -3.1391   56.3671 H       1  ZINC000465392830    0.0900
     56 H56       -10.0456   -2.2001   56.7180 H       1  ZINC000465392830    0.0900
     57 H57       -15.3865   -2.3683   57.9507 H       1  ZINC000465392830    0.0900
     58 H58       -14.8071   -4.0411   58.1360 H       1  ZINC000465392830    0.0900
     59 H59       -16.4532   -3.6067   58.6556 H       1  ZINC000465392830    0.1100
     60 H60       -10.0311   -0.7163   62.0253 H       1  ZINC000465392830    0.0900
     61 H61        -9.8925    0.4674   60.7032 H       1  ZINC000465392830    0.0900
     62 H62       -11.3131    0.4930   61.7752 H       1  ZINC000465392830    0.0800
@<TRIPOS>BOND
     1     1     2    1
     2     1    32    1
     3     1    33    1
     4     1    34    1
     5     2     3    1
     6     3     4    2
     7     3     5    1
     8     5     6    1
     9     5    17    1
    10     5     7    1
    11     7     8    1
    12     7    35    1
    13     7    36    1
    14     8     9    1
    15     8    10    1
    16     8    16    1
    17    10    15    1
    18    10    11    1
    19    10    37    1
    20    11    12    1
    21    11    38    1
    22    11    39    1
    23    12    13    1
    24    12    40    1
    25    12    41    1
    26    13    14    1
    27    13    42    1
    28    13    43    1
    29    14    15    1
    30    14    44    1
    31    14    45    1
    32    15    46    1
    33    15    47    1
    34    16    17    1
    35    16    48    1
    36    16    49    1
    37    17    18   am
    38    18    19    2
    39    18    20    1
    40    20    21    1
    41    20    50    1
    42    20    51    1
    43    21    22    1
    44    21    52    1
    45    21    53    1
    46    22    30   ar
    47    22    23   ar
    48    23    24    1
    49    23    25   ar
    50    24    54    1
    51    24    55    1
    52    24    56    1
    53    25    26   ar
    54    26    27    1
    55    26    29   ar
    56    27    28    1
    57    28    57    1
    58    28    58    1
    59    28    59    1
    60    29    30   ar
    61    30    31    1
    62    31    60    1
    63    31    61    1
    64    31    62    1
@<TRIPOS>SUBSTRUCTURE
     1 ZINC000465392830        1 TEMP              0 ****  ****    0 ROOT


##########                                Name:    ZINC001077846158
##########                DOCK_Rotatable_Bonds:                   7
##########                         Heavy_Atoms:                  24
##########                    Molecular_Weight:             350.442
##########                DOCK_Rotatable_Bonds:                   7
##########                       Formal_Charge:          -0.0600002
##########                     HBond_Acceptors:                   8
##########                        HBond_Donors:                   2
##########                         Heavy_Atoms:                  24
##########                          Grid_Score:          -30.672037
##########                     Grid_vdw_energy:          -29.337179
##########                      Grid_es_energy:           -1.334858
##########           Internal_energy_repulsive:            7.305520

@<TRIPOS>MOLECULE
ZINC001077846158
 46 48 1 0 0
SMALL
USER_CHARGES


@<TRIPOS>ATOM
      1 C1          0.4966    3.5147   51.6592 C.3     1  ZINC001077846158   -0.0700
      2 C2         -0.2282    2.7680   50.5690 C.2     1  ZINC001077846158    0.0100
      3 C3         -1.5601    2.6845   50.4158 C.2     1  ZINC001077846158   -0.0500
      4 C4         -2.6042    3.3181   51.2986 C.3     1  ZINC001077846158    0.1300
      5 N5         -3.9420    2.9453   50.8197 N.3     1  ZINC001077846158   -0.5100
      6 C6         -4.2876    1.5605   51.2307 C.3     1  ZINC001077846158    0.0000
      7 C7         -5.8334    1.5353   51.1269 C.3     1  ZINC001077846158    0.1000
      8 H8         -6.1482    1.3804   50.0949 H       1  ZINC001077846158    0.0800
      9 O9         -6.3809    0.5260   51.9775 O.3     1  ZINC001077846158   -0.5600
     10 C10        -6.2358    2.9456   51.6158 C.3     1  ZINC001077846158    0.1400
     11 H11        -6.5118    2.9162   52.6698 H       1  ZINC001077846158    0.1100
     12 N12        -7.3471    3.4639   50.8141 N.am    1  ZINC001077846158   -0.7000
     13 C13        -8.6134    3.3419   51.2592 C.2     1  ZINC001077846158    0.6000
     14 O14        -8.8336    2.8004   52.3259 O.2     1  ZINC001077846158   -0.5300
     15 C15        -9.7304    3.8644   50.4543 C.2     1  ZINC001077846158    0.0100
     16 C16        -9.5652    4.4173   49.2316 C.2     1  ZINC001077846158   -0.2300
     17 S17       -11.0926    4.8957   48.6314 S.3     1  ZINC001077846158    0.2300
     18 C18       -11.8633    4.3302   50.0466 C.2     1  ZINC001077846158    0.0300
     19 C19       -13.3469    4.4002   50.3023 C.3     1  ZINC001077846158   -0.0200
     20 C20       -14.0981    4.3186   48.9720 C.3     1  ZINC001077846158   -0.1500
     21 C21       -13.7657    3.2320   51.1972 C.3     1  ZINC001077846158   -0.1500
     22 N22       -11.0020    3.8312   50.8616 N.2     1  ZINC001077846158   -0.4500
     23 C23        -4.9797    3.8139   51.4165 C.3     1  ZINC001077846158    0.0300
     24 O24        -1.7869    1.9279   49.3241 O.3     1  ZINC001077846158   -0.2100
     25 C25        -0.5982    1.5610   48.8271 C.2     1  ZINC001077846158    0.1800
     26 N26         0.3420    2.0700   49.5710 N.2     1  ZINC001077846158   -0.4900
     27 H27         0.6816    4.5393   51.3366 H       1  ZINC001077846158    0.0800
     28 H28        -0.1141    3.5227   52.5620 H       1  ZINC001077846158    0.0700
     29 H29         1.4465    3.0222   51.8673 H       1  ZINC001077846158    0.0700
     30 H30        -2.4746    2.9688   52.3229 H       1  ZINC001077846158    0.0600
     31 H31        -2.4965    4.4023   51.2680 H       1  ZINC001077846158    0.1100
     32 H32        -3.8444    0.8348   50.5489 H       1  ZINC001077846158    0.0900
     33 H33        -3.9678    1.3723   52.2556 H       1  ZINC001077846158    0.0600
     34 H34        -5.9164    0.4271   52.8198 H       1  ZINC001077846158    0.3900
     35 H35        -7.1716    3.8947   49.9630 H       1  ZINC001077846158    0.4100
     36 H36        -8.6226    4.5371   48.7182 H       1  ZINC001077846158    0.1900
     37 H37       -13.5861    5.3413   50.7976 H       1  ZINC001077846158    0.1000
     38 H38       -13.7996    5.1508   48.3345 H       1  ZINC001077846158    0.0600
     39 H39       -13.8588    3.3775   48.4767 H       1  ZINC001077846158    0.0600
     40 H40       -15.1711    4.3692   49.1570 H       1  ZINC001077846158    0.0700
     41 H41       -13.2306    3.2902   52.1449 H       1  ZINC001077846158    0.0600
     42 H42       -14.8388    3.2826   51.3821 H       1  ZINC001077846158    0.0700
     43 H43       -13.5264    2.2910   50.7019 H       1  ZINC001077846158    0.0600
     44 H44        -4.6362    4.1963   52.3776 H       1  ZINC001077846158    0.0600
     45 H45        -5.2034    4.6415   50.7431 H       1  ZINC001077846158    0.0900
     46 H46        -0.4447    0.9478   47.9514 H       1  ZINC001077846158    0.2500
@<TRIPOS>BOND
     1     1     2    1
     2     1    27    1
     3     1    28    1
     4     1    29    1
     5     2    26    1
     6     2     3    2
     7     3     4    1
     8     3    24    1
     9     4     5    1
    10     4    30    1
    11     4    31    1
    12     5    23    1
    13     5     6    1
    14     6     7    1
    15     6    32    1
    16     6    33    1
    17     7     8    1
    18     7     9    1
    19     7    10    1
    20     9    34    1
    21    10    11    1
    22    10    12    1
    23    10    23    1
    24    12    13   am
    25    12    35    1
    26    13    14    2
    27    13    15    1
    28    15    22    1
    29    15    16    2
    30    16    17    1
    31    16    36    1
    32    17    18    1
    33    18    19    1
    34    18    22    2
    35    19    20    1
    36    19    21    1
    37    19    37    1
    38    20    38    1
    39    20    39    1
    40    20    40    1
    41    21    41    1
    42    21    42    1
    43    21    43    1
    44    23    44    1
    45    23    45    1
    46    24    25    1
    47    25    26    2
    48    25    46    1
@<TRIPOS>SUBSTRUCTURE
     1 ZINC001077846158        1 TEMP              0 ****  ****    0 ROOT


##########                                Name:    ZINC000006915700
##########                DOCK_Rotatable_Bonds:                   5
##########                         Heavy_Atoms:                  26
##########                    Molecular_Weight:             369.447
##########                DOCK_Rotatable_Bonds:                   5
##########                       Formal_Charge:        -1.04308e-07
##########                     HBond_Acceptors:                   8
##########                        HBond_Donors:                   1
##########                         Heavy_Atoms:                  26
##########                          Grid_Score:          -30.657583
##########                     Grid_vdw_energy:          -30.101723
##########                      Grid_es_energy:           -0.555860
##########           Internal_energy_repulsive:            6.403301

@<TRIPOS>MOLECULE
ZINC000006915700
 45 48 1 0 0
SMALL
USER_CHARGES


@<TRIPOS>ATOM
      1 C1          2.3525    1.0127   47.3500 C.3     1  <0>        -0.1200
      2 C2          1.3343    1.4517   48.3706 C.ar    1  <0>        -0.0500
      3 C3          1.7531    1.9375   49.5965 C.ar    1  <0>        -0.1300
      4 C4          0.8257    2.3414   50.5350 C.ar    1  <0>        -0.0600
      5 C5         -0.5365    2.2589   50.2456 C.ar    1  <0>        -0.0700
      6 C6         -1.5370    2.6912   51.2483 C.2     1  <0>         0.4400
      7 N7         -1.1805    3.5456   52.1984 N.2     1  <0>        -0.5200
      8 C8         -2.0726    3.9451   53.1098 C.2     1  <0>         0.3600
      9 C9         -1.9998    4.8084   54.1954 C.2     1  <0>        -0.3200
     10 C10        -3.2593    4.8434   54.7958 C.2     1  <0>         0.5500
     11 O11        -3.5630    5.4999   55.7786 O.2     1  <0>        -0.5200
     12 N12        -4.0833    4.0304   54.1064 N.am    1  <0>        -0.5000
     13 N13        -3.3632    3.4609   53.0517 N.pl3   1  <0>        -0.3300
     14 C14        -3.6987    2.5830   52.0617 C.2     1  <0>         0.3900
     15 S15        -5.3380    1.9452   51.9582 S.3     1  <0>         0.1200
     16 C16        -6.2416    3.4634   51.5649 C.3     1  <0>        -0.1500
     17 C17        -7.7171    3.2380   51.7734 C.2     1  <0>         0.5500
     18 O18        -8.0988    2.4951   52.6529 O.2     1  <0>        -0.5200
     19 N19        -8.6123    3.8618   50.9824 N.am    1  <0>        -0.6100
     20 C20       -10.0741    3.7364   51.0779 C.3     1  <0>         0.0900
     21 C21       -10.6827    4.6065   49.9581 C.3     1  <0>        -0.1300
     22 C22        -9.5186    4.7260   48.9393 C.3     1  <0>        -0.1400
     23 C23        -8.2882    4.7878   49.8820 C.3     1  <0>         0.1000
     24 N24        -2.7837    2.2186   51.1770 N.2     1  <0>        -0.5600
     25 C25        -0.9522    1.7683   49.0077 C.ar    1  <0>        -0.0500
     26 C26        -0.0151    1.3725   48.0756 C.ar    1  <0>        -0.1300
     27 H27         2.6256    1.8603   46.7214 H       1  <0>         0.0800
     28 H28         3.2399    0.6378   47.8599 H       1  <0>         0.0700
     29 H29         1.9285    0.2226   46.7303 H       1  <0>         0.0700
     30 H30         2.8078    2.0004   49.8195 H       1  <0>         0.1300
     31 H31         1.1537    2.7200   51.4917 H       1  <0>         0.1300
     32 H32        -1.1253    5.3543   54.5174 H       1  <0>         0.1800
     33 H33        -5.0182    3.8678   54.3075 H       1  <0>         0.4400
     34 H34        -5.9013    4.2679   52.2169 H       1  <0>         0.1400
     35 H35        -6.0590    3.7360   50.5256 H       1  <0>         0.1400
     36 H36       -10.3668    2.6958   50.9393 H       1  <0>         0.0800
     37 H37       -10.4139    4.0929   52.0504 H       1  <0>         0.0800
     38 H38       -11.5409    4.1088   49.5064 H       1  <0>         0.0900
     39 H39       -10.9622    5.5880   50.3410 H       1  <0>         0.0800
     40 H40        -9.4750    3.8504   48.2915 H       1  <0>         0.0800
     41 H41        -9.6053    5.6403   48.3523 H       1  <0>         0.0900
     42 H42        -8.1505    5.8009   50.2599 H       1  <0>         0.0800
     43 H43        -7.3926    4.4520   49.3594 H       1  <0>         0.0800
     44 H44        -2.0055    1.7021   48.7779 H       1  <0>         0.1400
     45 H45        -0.3357    0.9927   47.1168 H       1  <0>         0.1300
@<TRIPOS>BOND
     1     1     2    1
     2     1    27    1
     3     1    28    1
     4     1    29    1
     5     2    26   ar
     6     2     3   ar
     7     3     4   ar
     8     3    30    1
     9     4     5   ar
    10     4    31    1
    11     5     6    1
    12     5    25   ar
    13     6    24    1
    14     6     7    2
    15     7     8    1
    16     8    13    1
    17     8     9    2
    18     9    10    1
    19     9    32    1
    20    10    11    2
    21    10    12   am
    22    12    13    1
    23    12    33    1
    24    13    14    1
    25    14    15    1
    26    14    24    2
    27    15    16    1
    28    16    17    1
    29    16    34    1
    30    16    35    1
    31    17    18    2
    32    17    19   am
    33    19    23    1
    34    19    20    1
    35    20    21    1
    36    20    36    1
    37    20    37    1
    38    21    22    1
    39    21    38    1
    40    21    39    1
    41    22    23    1
    42    22    40    1
    43    22    41    1
    44    23    42    1
    45    23    43    1
    46    25    26   ar
    47    25    44    1
    48    26    45    1
@<TRIPOS>SUBSTRUCTURE
     1 <0>         1 TEMP              0 ****  ****    0 ROOT


##########                                Name:    ZINC000279593480
##########                DOCK_Rotatable_Bonds:                   9
##########                         Heavy_Atoms:                  23
##########                    Molecular_Weight:              340.85
##########                DOCK_Rotatable_Bonds:                   9
##########                       Formal_Charge:          -0.0500002
##########                     HBond_Acceptors:                   6
##########                        HBond_Donors:                   3
##########                         Heavy_Atoms:                  23
##########                          Grid_Score:          -30.643608
##########                     Grid_vdw_energy:          -27.810459
##########                      Grid_es_energy:           -2.833148
##########           Internal_energy_repulsive:           16.943052

@<TRIPOS>MOLECULE
ZINC000279593480
 48 49 1 0 0
SMALL
USER_CHARGES


@<TRIPOS>ATOM
      1 C1         -5.0731    4.4567   57.1432 C.3     1  ZINC000279593480   -0.1400
      2 C2         -5.0240    3.0428   56.5604 C.3     1  ZINC000279593480   -0.1400
      3 C3         -6.4350    2.4519   56.5361 C.3     1  ZINC000279593480    0.1700
      4 H4         -6.3766    1.3790   56.3530 H       1  ZINC000279593480    0.0900
      5 C5         -7.2469    3.1160   55.4223 C.3     1  ZINC000279593480   -0.0900
      6 C6         -6.6900    2.7074   54.0828 C.ar    1  ZINC000279593480   -0.0800
      7 C7         -5.8712    3.5731   53.3819 C.ar    1  ZINC000279593480   -0.1000
      8 C8         -5.3601    3.1990   52.1534 C.ar    1  ZINC000279593480   -0.1100
      9 C9         -5.6682    1.9579   51.6252 C.ar    1  ZINC000279593480   -0.0400
     10 Cl10       -5.0262    1.4871   50.0824 Cl      1  ZINC000279593480   -0.0700
     11 C11        -6.4877    1.0921   52.3271 C.ar    1  ZINC000279593480   -0.1100
     12 C12        -6.9936    1.4650   53.5581 C.ar    1  ZINC000279593480   -0.1000
     13 N13        -7.0874    2.6923   57.8257 N.am    1  ZINC000279593480   -0.7400
     14 C14        -7.4604    1.6516   58.5966 C.2     1  ZINC000279593480    0.7100
     15 O15        -7.2542    0.5132   58.2223 O.2     1  ZINC000279593480   -0.5800
     16 N16        -8.0620    1.8727   59.7822 N.am    1  ZINC000279593480   -0.7500
     17 C17        -8.4659    0.7415   60.6208 C.3     1  ZINC000279593480    0.1200
     18 C18        -9.0676    1.2641   61.9269 C.3     1  ZINC000279593480    0.0900
     19 O19        -8.2364    2.2826   62.4873 O.3     1  ZINC000279593480   -0.5400
     20 C20       -10.4976    1.7985   61.6885 C.3     1  ZINC000279593480   -0.1900
     21 C21       -11.3864    0.9029   62.5797 C.3     1  ZINC000279593480    0.0500
     22 O22       -10.5009    0.4131   63.6102 O.3     1  ZINC000279593480   -0.3600
     23 C23        -9.2615    0.1088   62.9339 C.3     1  ZINC000279593480    0.0900
     24 H24        -9.3396   -0.8432   62.4088 H       1  ZINC000279593480    0.0800
     25 C25        -8.1044    0.0711   63.9341 C.3     1  ZINC000279593480   -0.1400
     26 H26        -5.4683    4.4177   58.1583 H       1  ZINC000279593480    0.0600
     27 H27        -4.0679    4.8777   57.1604 H       1  ZINC000279593480    0.0400
     28 H28        -5.7183    5.0819   56.5259 H       1  ZINC000279593480    0.0600
     29 H29        -4.6290    3.0818   55.5452 H       1  ZINC000279593480    0.0600
     30 H30        -4.3788    2.4177   57.1776 H       1  ZINC000279593480    0.0700
     31 H31        -8.2880    2.8011   55.4942 H       1  ZINC000279593480    0.0800
     32 H32        -7.1870    4.1994   55.5255 H       1  ZINC000279593480    0.0900
     33 H33        -5.6311    4.5420   53.7942 H       1  ZINC000279593480    0.1300
     34 H34        -4.7207    3.8755   51.6057 H       1  ZINC000279593480    0.1300
     35 H35        -6.7288    0.1232   51.9152 H       1  ZINC000279593480    0.1300
     36 H36        -7.6330    0.7890   54.1064 H       1  ZINC000279593480    0.1300
     37 H37        -7.2509    3.6005   58.1247 H       1  ZINC000279593480    0.3900
     38 H38        -8.2277    2.7808   60.0801 H       1  ZINC000279593480    0.3900
     39 H39        -9.2086    0.1441   60.0921 H       1  ZINC000279593480    0.0800
     40 H40        -7.5950    0.1248   60.8432 H       1  ZINC000279593480    0.0800
     41 H41        -7.4681    2.5060   61.9444 H       1  ZINC000279593480    0.3700
     42 H42       -10.5726    2.8406   61.9990 H       1  ZINC000279593480    0.0900
     43 H43       -10.7759    1.6903   60.6402 H       1  ZINC000279593480    0.0900
     44 H44       -12.1940    1.4878   63.0199 H       1  ZINC000279593480    0.1000
     45 H45       -11.7903    0.0726   62.0003 H       1  ZINC000279593480    0.0600
     46 H46        -8.2849   -0.7133   64.6692 H       1  ZINC000279593480    0.0600
     47 H47        -7.1735   -0.1338   63.4053 H       1  ZINC000279593480    0.0700
     48 H48        -8.0303    1.0334   64.4406 H       1  ZINC000279593480    0.0700
@<TRIPOS>BOND
     1     1     2    1
     2     1    26    1
     3     1    27    1
     4     1    28    1
     5     2     3    1
     6     2    29    1
     7     2    30    1
     8     3     4    1
     9     3     5    1
    10     3    13    1
    11     5     6    1
    12     5    31    1
    13     5    32    1
    14     6    12   ar
    15     6     7   ar
    16     7     8   ar
    17     7    33    1
    18     8     9   ar
    19     8    34    1
    20     9    10    1
    21     9    11   ar
    22    11    12   ar
    23    11    35    1
    24    12    36    1
    25    13    14   am
    26    13    37    1
    27    14    15    2
    28    14    16   am
    29    16    17    1
    30    16    38    1
    31    17    18    1
    32    17    39    1
    33    17    40    1
    34    18    23    1
    35    18    19    1
    36    18    20    1
    37    19    41    1
    38    20    21    1
    39    20    42    1
    40    20    43    1
    41    21    22    1
    42    21    44    1
    43    21    45    1
    44    22    23    1
    45    23    24    1
    46    23    25    1
    47    25    46    1
    48    25    47    1
    49    25    48    1
@<TRIPOS>SUBSTRUCTURE
     1 ZINC000279593480        1 TEMP              0 ****  ****    0 ROOT


##########                                Name:    ZINC001492779707
##########                DOCK_Rotatable_Bonds:                   8
##########                         Heavy_Atoms:                  27
##########                    Molecular_Weight:             374.483
##########                DOCK_Rotatable_Bonds:                   8
##########                       Formal_Charge:           0.0199998
##########                     HBond_Acceptors:                   7
##########                        HBond_Donors:                   0
##########                         Heavy_Atoms:                  27
##########                          Grid_Score:          -30.634205
##########                     Grid_vdw_energy:          -29.465689
##########                      Grid_es_energy:           -1.168517
##########           Internal_energy_repulsive:           10.796667

@<TRIPOS>MOLECULE
ZINC001492779707
 57 59 1 0 0
SMALL
USER_CHARGES


@<TRIPOS>ATOM
      1 C1        -10.7687    3.6004   52.4830 C.3     1  ZINC001492779707   -0.0700
      2 C2         -9.3735    3.5756   51.9141 C.2     1  ZINC001492779707    0.1800
      3 N3         -8.9658    4.1932   50.8416 N.2     1  ZINC001492779707   -0.2900
      4 N4         -7.7180    3.9564   50.6441 N.2     1  ZINC001492779707   -0.3100
      5 C5         -7.2591    3.1686   51.5878 C.2     1  ZINC001492779707    0.3400
      6 N6         -5.9614    2.6973   51.7087 N.3     1  ZINC001492779707   -0.4600
      7 C7         -5.8446    1.3339   51.1746 C.3     1  ZINC001492779707    0.0300
      8 C8         -5.0091    3.6031   51.0526 C.3     1  ZINC001492779707    0.1100
      9 C9         -3.6952    3.5705   51.7899 C.ar    1  ZINC001492779707   -0.0400
     10 C10        -2.5721    3.0467   51.1769 C.ar    1  ZINC001492779707   -0.1300
     11 C11        -1.3649    3.0153   51.8508 C.ar    1  ZINC001492779707   -0.0800
     12 C12        -1.2785    3.5074   53.1384 C.ar    1  ZINC001492779707   -0.2100
     13 C13        -2.4042    4.0335   53.7558 C.ar    1  ZINC001492779707    0.1300
     14 O14        -2.3216    4.5187   55.0227 O.3     1  ZINC001492779707   -0.3100
     15 C15        -2.7969    3.6742   56.0730 C.3     1  ZINC001492779707    0.0800
     16 C16        -1.6853    2.7115   56.4957 C.3     1  ZINC001492779707   -0.1500
     17 C17        -3.2106    4.5327   57.2699 C.3     1  ZINC001492779707   -0.1800
     18 C18        -3.6126    4.0690   53.0758 C.ar    1  ZINC001492779707   -0.1400
     19 N19        -8.2993    2.9057   52.4308 N.pl3   1  ZINC001492779707   -0.4600
     20 C20        -8.2732    2.0710   53.6345 C.3     1  ZINC001492779707    0.1200
     21 C21        -7.3763    2.7236   54.6884 C.3     1  ZINC001492779707   -0.1200
     22 C22        -7.4569    1.9256   55.9913 C.3     1  ZINC001492779707    0.0600
     23 H23        -7.2473    0.8754   55.7890 H       1  ZINC001492779707    0.0800
     24 C24        -6.4302    2.4696   56.9890 C.3     1  ZINC001492779707    0.0300
     25 O25        -6.5878    1.7939   58.2402 O.3     1  ZINC001492779707   -0.3800
     26 C26        -7.8986    1.9220   58.7990 C.3     1  ZINC001492779707    0.0200
     27 C27        -8.9254    1.3781   57.8016 C.3     1  ZINC001492779707    0.0300
     28 O28        -8.7683    2.0526   56.5494 O.3     1  ZINC001492779707   -0.3800
     29 H29       -10.8612    4.4313   53.1826 H       1  ZINC001492779707    0.0900
     30 H30       -11.4888    3.7245   51.6742 H       1  ZINC001492779707    0.1000
     31 H31       -10.9654    2.6633   53.0040 H       1  ZINC001492779707    0.0800
     32 H32        -6.0131    1.3498   50.0978 H       1  ZINC001492779707    0.0500
     33 H33        -4.8464    0.9472   51.3804 H       1  ZINC001492779707    0.0900
     34 H34        -6.5875    0.6928   51.6492 H       1  ZINC001492779707    0.0700
     35 H35        -4.8554    3.2841   50.0218 H       1  ZINC001492779707    0.0700
     36 H36        -5.4066    4.6180   51.0633 H       1  ZINC001492779707    0.0900
     37 H37        -2.6378    2.6612   50.1702 H       1  ZINC001492779707    0.1200
     38 H38        -0.4891    2.6054   51.3698 H       1  ZINC001492779707    0.1300
     39 H39        -0.3356    3.4823   53.6645 H       1  ZINC001492779707    0.1300
     40 H40        -3.6563    3.1043   55.7202 H       1  ZINC001492779707    0.0700
     41 H41        -0.8257    3.2815   56.8485 H       1  ZINC001492779707    0.0700
     42 H42        -2.0477    2.0674   57.2969 H       1  ZINC001492779707    0.0800
     43 H43        -1.3905    2.1000   55.6429 H       1  ZINC001492779707    0.0700
     44 H44        -4.0025    5.2185   56.9688 H       1  ZINC001492779707    0.0600
     45 H45        -3.5731    3.8884   58.0711 H       1  ZINC001492779707    0.0700
     46 H46        -2.3511    5.1026   57.6227 H       1  ZINC001492779707    0.0700
     47 H47        -4.4902    4.4780   53.5542 H       1  ZINC001492779707    0.1300
     48 H48        -9.2842    1.9708   54.0292 H       1  ZINC001492779707    0.1000
     49 H49        -7.8815    1.0850   53.3843 H       1  ZINC001492779707    0.1000
     50 H50        -6.3462    2.7348   54.3323 H       1  ZINC001492779707    0.0900
     51 H51        -7.7102    3.7457   54.8670 H       1  ZINC001492779707    0.0800
     52 H52        -5.4241    2.2977   56.6063 H       1  ZINC001492779707    0.1100
     53 H53        -6.5898    3.5386   57.1296 H       1  ZINC001492779707    0.0600
     54 H54        -7.9560    1.3536   59.7273 H       1  ZINC001492779707    0.1100
     55 H55        -8.1076    2.9726   59.0006 H       1  ZINC001492779707    0.0600
     56 H56        -8.7658    0.3091   57.6608 H       1  ZINC001492779707    0.0600
     57 H57        -9.9315    1.5500   58.1841 H       1  ZINC001492779707    0.1100
@<TRIPOS>BOND
     1     1     2    1
     2     1    29    1
     3     1    30    1
     4     1    31    1
     5     2    19    1
     6     2     3    2
     7     3     4    1
     8     4     5    2
     9     5     6    1
    10     5    19    1
    11     6     7    1
    12     6     8    1
    13     7    32    1
    14     7    33    1
    15     7    34    1
    16     8     9    1
    17     8    35    1
    18     8    36    1
    19     9    18   ar
    20     9    10   ar
    21    10    11   ar
    22    10    37    1
    23    11    12   ar
    24    11    38    1
    25    12    13   ar
    26    12    39    1
    27    13    14    1
    28    13    18   ar
    29    14    15    1
    30    15    16    1
    31    15    17    1
    32    15    40    1
    33    16    41    1
    34    16    42    1
    35    16    43    1
    36    17    44    1
    37    17    45    1
    38    17    46    1
    39    18    47    1
    40    19    20    1
    41    20    21    1
    42    20    48    1
    43    20    49    1
    44    21    22    1
    45    21    50    1
    46    21    51    1
    47    22    23    1
    48    22    28    1
    49    22    24    1
    50    24    25    1
    51    24    52    1
    52    24    53    1
    53    25    26    1
    54    26    27    1
    55    26    54    1
    56    26    55    1
    57    27    28    1
    58    27    56    1
    59    27    57    1
@<TRIPOS>SUBSTRUCTURE
     1 ZINC001492779707        1 TEMP              0 ****  ****    0 ROOT


##########                                Name:    ZINC000965273005
##########                DOCK_Rotatable_Bonds:                   7
##########                         Heavy_Atoms:                  27
##########                    Molecular_Weight:             368.436
##########                DOCK_Rotatable_Bonds:                   7
##########                       Formal_Charge:           0.0100003
##########                     HBond_Acceptors:                   7
##########                        HBond_Donors:                   2
##########                         Heavy_Atoms:                  27
##########                          Grid_Score:          -30.619125
##########                     Grid_vdw_energy:          -27.563448
##########                      Grid_es_energy:           -3.055677
##########           Internal_energy_repulsive:           10.444863

@<TRIPOS>MOLECULE
ZINC000965273005
 51 54 1 0 0
SMALL
USER_CHARGES


@<TRIPOS>ATOM
      1 C1         -7.4097    1.0878   53.4012 C.3     1  ZINC000965273005   -0.1200
      2 C2         -7.9287    2.2103   52.5401 C.ar    1  ZINC000965273005   -0.0300
      3 C3         -9.0777    2.8833   52.9002 C.ar    1  ZINC000965273005   -0.1200
      4 C4         -9.5556    3.9142   52.1106 C.ar    1  ZINC000965273005   -0.0900
      5 C5         -8.8853    4.2774   50.9562 C.ar    1  ZINC000965273005   -0.1300
      6 C6         -7.7349    3.6124   50.5846 C.ar    1  ZINC000965273005   -0.0900
      7 C7         -7.2446    2.5752   51.3793 C.ar    1  ZINC000965273005   -0.1300
      8 C8         -6.0125    1.8582   50.9872 C.2     1  ZINC000965273005    0.5800
      9 O9         -6.0756    0.7066   50.6033 O.2     1  ZINC000965273005   -0.5200
     10 N10        -4.8195    2.4815   51.0554 N.am    1  ZINC000965273005   -0.6100
     11 C11        -4.5989    3.8675   51.5070 C.3     1  ZINC000965273005    0.0900
     12 C12        -3.1271    3.8979   51.9892 C.3     1  ZINC000965273005    0.1500
     13 H13        -2.7181    4.9067   51.9323 H       1  ZINC000965273005    0.1200
     14 N14        -3.0082    3.3619   53.3474 N.am    1  ZINC000965273005   -0.7100
     15 C15        -2.2916    4.0280   54.2744 C.2     1  ZINC000965273005    0.6000
     16 O16        -1.7424    5.0732   53.9829 O.2     1  ZINC000965273005   -0.5400
     17 C17        -2.1735    3.4896   55.6417 C.2     1  ZINC000965273005   -0.2800
     18 C18        -1.0332    2.9726   56.2231 C.2     1  ZINC000965273005    0.1000
     19 N19        -1.3542    2.5944   57.4707 N.pl3   1  ZINC000965273005   -0.3600
     20 C20        -0.4403    1.9922   58.4445 C.3     1  ZINC000965273005    0.1000
     21 N21        -2.7088    2.8731   57.6842 N.2     1  ZINC000965273005   -0.3000
     22 C22        -3.2047    3.4115   56.6044 C.2     1  ZINC000965273005    0.1700
     23 C23        -4.6301    3.8617   56.4137 C.3     1  ZINC000965273005   -0.0800
     24 C24        -5.1704    4.9228   57.3744 C.3     1  ZINC000965273005   -0.1700
     25 C25        -4.8593    5.2926   55.9228 C.3     1  ZINC000965273005   -0.1600
     26 C26        -2.4424    2.9613   50.9589 C.3     1  ZINC000965273005    0.0900
     27 H27        -2.2031    3.5036   50.0441 H       1  ZINC000965273005    0.0900
     28 O28        -1.2668    2.3702   51.5162 O.3     1  ZINC000965273005   -0.5500
     29 C29        -3.5219    1.8899   50.6981 C.3     1  ZINC000965273005    0.0600
     30 H30        -6.6543    1.4741   54.0855 H       1  ZINC000965273005    0.0800
     31 H31        -8.2323    0.6582   53.9730 H       1  ZINC000965273005    0.0700
     32 H32        -6.9670    0.3189   52.7680 H       1  ZINC000965273005    0.0700
     33 H33        -9.6055    2.6047   53.8003 H       1  ZINC000965273005    0.1300
     34 H34       -10.4559    4.4375   52.3967 H       1  ZINC000965273005    0.1300
     35 H35        -9.2635    5.0830   50.3443 H       1  ZINC000965273005    0.1300
     36 H36        -7.2128    3.8966   49.6829 H       1  ZINC000965273005    0.1300
     37 H37        -4.7418    4.5632   50.6802 H       1  ZINC000965273005    0.0900
     38 H38        -5.2724    4.1104   52.3289 H       1  ZINC000965273005    0.0900
     39 H39        -3.4453    2.5277   53.5796 H       1  ZINC000965273005    0.4000
     40 H40        -0.0615    2.8874   55.7594 H       1  ZINC000965273005    0.1800
     41 H41         0.0330    2.7782   59.0330 H       1  ZINC000965273005    0.0800
     42 H42        -0.9990    1.3297   59.1057 H       1  ZINC000965273005    0.1000
     43 H43         0.3249    1.4206   57.9194 H       1  ZINC000965273005    0.0900
     44 H44        -5.3235    3.0944   56.0692 H       1  ZINC000965273005    0.1400
     45 H45        -6.2194    4.8536   57.6625 H       1  ZINC000965273005    0.1000
     46 H46        -4.4948    5.2952   58.1445 H       1  ZINC000965273005    0.1000
     47 H47        -3.9791    5.9083   55.7379 H       1  ZINC000965273005    0.0900
     48 H48        -5.7037    5.4667   55.2558 H       1  ZINC000965273005    0.1000
     49 H49        -1.4449    1.6519   52.1385 H       1  ZINC000965273005    0.3900
     50 H50        -3.3278    1.0109   51.3127 H       1  ZINC000965273005    0.0800
     51 H51        -3.5236    1.6144   49.6434 H       1  ZINC000965273005    0.0800
@<TRIPOS>BOND
     1     1     2    1
     2     1    30    1
     3     1    31    1
     4     1    32    1
     5     2     7   ar
     6     2     3   ar
     7     3     4   ar
     8     3    33    1
     9     4     5   ar
    10     4    34    1
    11     5     6   ar
    12     5    35    1
    13     6     7   ar
    14     6    36    1
    15     7     8    1
    16     8     9    2
    17     8    10   am
    18    10    29    1
    19    10    11    1
    20    11    12    1
    21    11    37    1
    22    11    38    1
    23    12    13    1
    24    12    14    1
    25    12    26    1
    26    14    15   am
    27    14    39    1
    28    15    16    2
    29    15    17    1
    30    17    22    1
    31    17    18    2
    32    18    19    1
    33    18    40    1
    34    19    20    1
    35    19    21    1
    36    20    41    1
    37    20    42    1
    38    20    43    1
    39    21    22    2
    40    22    23    1
    41    23    25    1
    42    23    24    1
    43    23    44    1
    44    24    25    1
    45    24    45    1
    46    24    46    1
    47    25    47    1
    48    25    48    1
    49    26    27    1
    50    26    28    1
    51    26    29    1
    52    28    49    1
    53    29    50    1
    54    29    51    1
@<TRIPOS>SUBSTRUCTURE
     1 ZINC000965273005        1 TEMP              0 ****  ****    0 ROOT


##########                                Name:    ZINC000555499135
##########                DOCK_Rotatable_Bonds:                   8
##########                         Heavy_Atoms:                  26
##########                    Molecular_Weight:             377.554
##########                DOCK_Rotatable_Bonds:                   8
##########                       Formal_Charge:           0.0399999
##########                     HBond_Acceptors:                   7
##########                        HBond_Donors:                   0
##########                         Heavy_Atoms:                  26
##########                          Grid_Score:          -30.618141
##########                     Grid_vdw_energy:          -31.295071
##########                      Grid_es_energy:            0.676929
##########           Internal_energy_repulsive:           12.314448

@<TRIPOS>MOLECULE
ZINC000555499135
 57 59 1 0 0
SMALL
USER_CHARGES


@<TRIPOS>ATOM
      1 C1         -8.8536    2.1912   55.4766 C.3     1  ZINC000555499135   -0.1500
      2 C2         -9.2133    3.4731   54.7228 C.3     1  ZINC000555499135   -0.0500
      3 C3         -8.2218    3.6965   53.6101 C.2     1  ZINC000555499135   -0.2100
      4 C4         -8.4682    4.3104   52.4489 C.2     1  ZINC000555499135    0.0300
      5 N5         -7.4324    4.3805   51.6372 N.2     1  ZINC000555499135   -0.4500
      6 C6         -6.3259    3.8600   52.0491 C.2     1  ZINC000555499135    0.0400
      7 C7         -5.0378    3.8412   51.2672 C.3     1  ZINC000555499135    0.1500
      8 N8         -4.2684    2.6405   51.6197 N.3     1  ZINC000555499135   -0.4500
      9 C9         -4.7756    1.4616   50.9050 C.3     1  ZINC000555499135    0.0100
     10 C10        -2.9172    2.8266   51.3745 C.2     1  ZINC000555499135    0.3500
     11 N11        -2.2271    2.3162   50.3820 N.2     1  ZINC000555499135   -0.3100
     12 N12        -1.0019    2.6964   50.4611 N.2     1  ZINC000555499135   -0.2900
     13 C13        -0.8390    3.4657   51.5000 C.2     1  ZINC000555499135    0.2100
     14 C14         0.4488    4.1144   51.9380 C.3     1  ZINC000555499135   -0.0300
     15 C15         1.5980    3.1146   51.7945 C.3     1  ZINC000555499135   -0.0900
     16 C16         2.5424    3.5789   50.6840 C.3     1  ZINC000555499135   -0.1500
     17 C17         2.3665    3.0280   53.1146 C.3     1  ZINC000555499135   -0.1500
     18 N18        -2.0545    3.5802   52.1160 N.pl3   1  ZINC000555499135   -0.4600
     19 C19        -2.3643    4.3459   53.3259 C.3     1  ZINC000555499135    0.1100
     20 C20        -2.3837    3.4063   54.5331 C.3     1  ZINC000555499135    0.0700
     21 H21        -2.8197    2.4504   54.2428 H       1  ZINC000555499135    0.0700
     22 C22        -3.2212    4.0304   55.6524 C.3     1  ZINC000555499135   -0.1500
     23 C23        -3.1864    3.1124   56.8782 C.3     1  ZINC000555499135   -0.1200
     24 C24        -1.7293    2.8921   57.2961 C.3     1  ZINC000555499135   -0.1600
     25 C25        -0.9494    2.3120   56.1133 C.3     1  ZINC000555499135    0.0600
     26 O26        -1.0482    3.1994   54.9977 O.3     1  ZINC000555499135   -0.3700
     27 S27        -6.5308    3.2013   53.6135 S.3     1  ZINC000555499135    0.1200
     28 H28        -8.8820    1.3455   54.7894 H       1  ZINC000555499135    0.0600
     29 H29        -7.8519    2.2852   55.8960 H       1  ZINC000555499135    0.0600
     30 H30        -9.5707    2.0295   56.2813 H       1  ZINC000555499135    0.0700
     31 H31       -10.2149    3.3790   54.3034 H       1  ZINC000555499135    0.0900
     32 H32        -9.1850    4.3187   55.4100 H       1  ZINC000555499135    0.0800
     33 H33        -9.4368    4.7159   52.1964 H       1  ZINC000555499135    0.1800
     34 H34        -5.2605    3.8298   50.2003 H       1  ZINC000555499135    0.0800
     35 H35        -4.4542    4.7301   51.5071 H       1  ZINC000555499135    0.1200
     36 H36        -4.5854    1.5742   49.8376 H       1  ZINC000555499135    0.0500
     37 H37        -4.2697    0.5686   51.2720 H       1  ZINC000555499135    0.0800
     38 H38        -5.8482    1.3673   51.0749 H       1  ZINC000555499135    0.0900
     39 H39         0.6463    4.9868   51.3151 H       1  ZINC000555499135    0.1000
     40 H40         0.3639    4.4234   52.9798 H       1  ZINC000555499135    0.1000
     41 H41         1.1962    2.1330   51.5429 H       1  ZINC000555499135    0.0800
     42 H42         1.9860    3.6791   49.7521 H       1  ZINC000555499135    0.0500
     43 H43         2.9750    4.5423   50.9542 H       1  ZINC000555499135    0.0600
     44 H44         3.3391    2.8464   50.5546 H       1  ZINC000555499135    0.0600
     45 H45         1.6936    2.6971   53.9058 H       1  ZINC000555499135    0.0600
     46 H46         3.1852    2.3157   53.0124 H       1  ZINC000555499135    0.0600
     47 H47         2.7682    4.0096   53.3662 H       1  ZINC000555499135    0.0600
     48 H48        -1.6045    5.1131   53.4747 H       1  ZINC000555499135    0.1100
     49 H49        -3.3408    4.8179   53.2170 H       1  ZINC000555499135    0.1200
     50 H50        -2.8095    5.0049   55.9153 H       1  ZINC000555499135    0.0800
     51 H51        -4.2508    4.1481   55.3146 H       1  ZINC000555499135    0.0800
     52 H52        -3.7344    3.5773   57.6977 H       1  ZINC000555499135    0.0700
     53 H53        -3.6432    2.1545   56.6294 H       1  ZINC000555499135    0.0600
     54 H54        -1.2874    3.8436   57.5921 H       1  ZINC000555499135    0.0700
     55 H55        -1.6918    2.1957   58.1338 H       1  ZINC000555499135    0.0800
     56 H56         0.0977    2.1931   56.3916 H       1  ZINC000555499135    0.1000
     57 H57        -1.3666    1.3417   55.8437 H       1  ZINC000555499135    0.0500
@<TRIPOS>BOND
     1     1     2    1
     2     1    28    1
     3     1    29    1
     4     1    30    1
     5     2     3    1
     6     2    31    1
     7     2    32    1
     8     3    27    1
     9     3     4    2
    10     4     5    1
    11     4    33    1
    12     5     6    2
    13     6     7    1
    14     6    27    1
    15     7     8    1
    16     7    34    1
    17     7    35    1
    18     8     9    1
    19     8    10    1
    20     9    36    1
    21     9    37    1
    22     9    38    1
    23    10    18    1
    24    10    11    2
    25    11    12    1
    26    12    13    2
    27    13    14    1
    28    13    18    1
    29    14    15    1
    30    14    39    1
    31    14    40    1
    32    15    16    1
    33    15    17    1
    34    15    41    1
    35    16    42    1
    36    16    43    1
    37    16    44    1
    38    17    45    1
    39    17    46    1
    40    17    47    1
    41    18    19    1
    42    19    20    1
    43    19    48    1
    44    19    49    1
    45    20    21    1
    46    20    26    1
    47    20    22    1
    48    22    23    1
    49    22    50    1
    50    22    51    1
    51    23    24    1
    52    23    52    1
    53    23    53    1
    54    24    25    1
    55    24    54    1
    56    24    55    1
    57    25    26    1
    58    25    56    1
    59    25    57    1
@<TRIPOS>SUBSTRUCTURE
     1 ZINC000555499135        1 TEMP              0 ****  ****    0 ROOT


##########                                Name:    ZINC000373715094
##########                DOCK_Rotatable_Bonds:                   6
##########                         Heavy_Atoms:                  27
##########                    Molecular_Weight:             362.431
##########                DOCK_Rotatable_Bonds:                   6
##########                       Formal_Charge:           0.0299999
##########                     HBond_Acceptors:                   6
##########                        HBond_Donors:                   2
##########                         Heavy_Atoms:                  27
##########                          Grid_Score:          -30.609720
##########                     Grid_vdw_energy:          -29.727097
##########                      Grid_es_energy:           -0.882624
##########           Internal_energy_repulsive:            8.759229

@<TRIPOS>MOLECULE
ZINC000373715094
 49 52 1 0 0
SMALL
USER_CHARGES


@<TRIPOS>ATOM
      1 C1        -10.6313   -1.5753   55.5544 C.3     1  ZINC000373715094    0.0900
      2 N2        -10.1221   -0.3562   54.9214 N.am    1  ZINC000373715094   -0.6100
      3 C3         -9.5055    0.6399   55.5805 C.2     1  ZINC000373715094    0.5200
      4 O4         -9.2997    0.6591   56.7756 O.2     1  ZINC000373715094   -0.5200
      5 C5         -9.1053    1.7334   54.6147 C.3     1  ZINC000373715094   -0.1600
      6 C6         -9.1988    1.0638   53.2240 C.3     1  ZINC000373715094   -0.1000
      7 H7         -9.5749    1.7643   52.4784 H       1  ZINC000373715094    0.1100
      8 C8         -7.8448    0.4914   52.7997 C.3     1  ZINC000373715094    0.1300
      9 N9         -7.0743    1.5248   52.1036 N.am    1  ZINC000373715094   -0.7300
     10 C10        -6.1532    1.1741   51.1843 C.2     1  ZINC000373715094    0.5200
     11 O11        -5.9631    0.0031   50.9324 O.2     1  ZINC000373715094   -0.5200
     12 C12        -5.3593    2.2372   50.4696 C.3     1  ZINC000373715094   -0.0600
     13 C13        -4.0622    2.4716   51.2001 C.2     1  ZINC000373715094    0.1200
     14 N14        -2.8790    2.1008   50.8017 N.2     1  ZINC000373715094   -0.2300
     15 N15        -1.9135    2.4897   51.7360 N.pl3   1  ZINC000373715094   -0.5100
     16 C16        -2.5301    3.1386   52.7737 C.ar    1  ZINC000373715094    0.1300
     17 C17        -2.0745    3.7266   53.9508 C.ar    1  ZINC000373715094   -0.1400
     18 C18        -2.9638    4.3116   54.8073 C.ar    1  ZINC000373715094   -0.0700
     19 C19        -4.3230    4.3279   54.5201 C.ar    1  ZINC000373715094   -0.1600
     20 C20        -4.7984    3.7593   53.3738 C.ar    1  ZINC000373715094   -0.0400
     21 C21        -3.9070    3.1602   52.4774 C.ar    1  ZINC000373715094   -0.1600
     22 C22       -10.2141   -0.0684   53.4852 C.3     1  ZINC000373715094    0.1800
     23 H23        -9.9531   -0.9511   52.9015 H       1  ZINC000373715094    0.1000
     24 C24       -11.6074    0.3909   53.1404 C.ar    1  ZINC000373715094   -0.1000
     25 C25       -12.3780    1.0346   54.0904 C.ar    1  ZINC000373715094   -0.1000
     26 C26       -13.6560    1.4558   53.7740 C.ar    1  ZINC000373715094   -0.1200
     27 C27       -14.1633    1.2336   52.5074 C.ar    1  ZINC000373715094   -0.1100
     28 C28       -13.3923    0.5908   51.5571 C.ar    1  ZINC000373715094   -0.1200
     29 C29       -12.1128    0.1734   51.8721 C.ar    1  ZINC000373715094   -0.1100
     30 H30        -9.8495   -2.3348   55.5617 H       1  ZINC000373715094    0.0600
     31 H31       -10.9327   -1.3544   56.5784 H       1  ZINC000373715094    0.0800
     32 H32       -11.4907   -1.9439   54.9942 H       1  ZINC000373715094    0.0700
     33 H33        -9.7970    2.5730   54.6812 H       1  ZINC000373715094    0.1100
     34 H34        -8.0849    2.0619   54.8120 H       1  ZINC000373715094    0.1100
     35 H35        -7.2967    0.1623   53.6825 H       1  ZINC000373715094    0.0700
     36 H36        -8.0017   -0.3561   52.1325 H       1  ZINC000373715094    0.0800
     37 H37        -7.2272    2.4615   52.3042 H       1  ZINC000373715094    0.4000
     38 H38        -5.1489    1.9105   49.4513 H       1  ZINC000373715094    0.1200
     39 H39        -5.9337    3.1631   50.4428 H       1  ZINC000373715094    0.1200
     40 H40        -0.9603    2.3260   51.6615 H       1  ZINC000373715094    0.4400
     41 H41        -1.0205    3.7201   54.1863 H       1  ZINC000373715094    0.1300
     42 H42        -2.6058    4.7664   55.7191 H       1  ZINC000373715094    0.1300
     43 H43        -5.0100    4.7947   55.2105 H       1  ZINC000373715094    0.1300
     44 H44        -5.8565    3.7762   53.1577 H       1  ZINC000373715094    0.1300
     45 H45       -11.9817    1.2081   55.0799 H       1  ZINC000373715094    0.1200
     46 H46       -14.2584    1.9580   54.5166 H       1  ZINC000373715094    0.1200
     47 H47       -15.1621    1.5621   52.2605 H       1  ZINC000373715094    0.1200
     48 H48       -13.7888    0.4169   50.5677 H       1  ZINC000373715094    0.1300
     49 H49       -11.5104   -0.3289   51.1297 H       1  ZINC000373715094    0.1300
@<TRIPOS>BOND
     1     1     2    1
     2     1    30    1
     3     1    31    1
     4     1    32    1
     5     2    22    1
     6     2     3   am
     7     3     4    2
     8     3     5    1
     9     5     6    1
    10     5    33    1
    11     5    34    1
    12     6     7    1
    13     6     8    1
    14     6    22    1
    15     8     9    1
    16     8    35    1
    17     8    36    1
    18     9    10   am
    19     9    37    1
    20    10    11    2
    21    10    12    1
    22    12    13    1
    23    12    38    1
    24    12    39    1
    25    13    21    1
    26    13    14    2
    27    14    15    1
    28    15    16    1
    29    15    40    1
    30    16    21   ar
    31    16    17   ar
    32    17    18   ar
    33    17    41    1
    34    18    19   ar
    35    18    42    1
    36    19    20   ar
    37    19    43    1
    38    20    21   ar
    39    20    44    1
    40    22    23    1
    41    22    24    1
    42    24    29   ar
    43    24    25   ar
    44    25    26   ar
    45    25    45    1
    46    26    27   ar
    47    26    46    1
    48    27    28   ar
    49    27    47    1
    50    28    29   ar
    51    28    48    1
    52    29    49    1
@<TRIPOS>SUBSTRUCTURE
     1 ZINC000373715094        1 TEMP              0 ****  ****    0 ROOT


##########                                Name:    ZINC000655235556
##########                DOCK_Rotatable_Bonds:                   6
##########                         Heavy_Atoms:                  23
##########                    Molecular_Weight:             336.778
##########                DOCK_Rotatable_Bonds:                   6
##########                       Formal_Charge:         -0.00999996
##########                     HBond_Acceptors:                   8
##########                        HBond_Donors:                   2
##########                         Heavy_Atoms:                  23
##########                          Grid_Score:          -30.604832
##########                     Grid_vdw_energy:          -31.219090
##########                      Grid_es_energy:            0.614258
##########           Internal_energy_repulsive:            9.391049

@<TRIPOS>MOLECULE
ZINC000655235556
 40 42 1 0 0
SMALL
USER_CHARGES


@<TRIPOS>ATOM
      1 C1          0.5575    1.4799   48.9980 C.3     1  ZINC000655235556    0.0200
      2 O2         -0.7454    1.7840   49.5002 O.3     1  ZINC000655235556   -0.2700
      3 C3         -0.8118    2.5640   50.6080 C.ar    1  ZINC000655235556    0.2000
      4 C4          0.3393    3.1358   51.1268 C.ar    1  ZINC000655235556   -0.2100
      5 C5          0.2697    3.9309   52.2556 C.ar    1  ZINC000655235556    0.0300
      6 Cl6         1.7156    4.6439   52.8997 Cl      1  ZINC000655235556   -0.0500
      7 C7         -0.9486    4.1625   52.8759 C.ar    1  ZINC000655235556   -0.1600
      8 C8         -2.1020    3.6014   52.3728 C.ar    1  ZINC000655235556   -0.0300
      9 C9         -2.0462    2.8000   51.2299 C.ar    1  ZINC000655235556   -0.1700
     10 C10        -3.2774    2.1970   50.6864 C.2     1  ZINC000655235556    0.5700
     11 O11        -3.4783    2.2011   49.4871 O.2     1  ZINC000655235556   -0.5100
     12 N12        -4.1800    1.6415   51.5190 N.am    1  ZINC000655235556   -0.7300
     13 C13        -5.4024    1.0409   50.9789 C.3     1  ZINC000655235556    0.2100
     14 C14        -6.4668    1.0229   52.0455 C.2     1  ZINC000655235556    0.2600
     15 N15        -7.4101    0.1255   52.1745 N.2     1  ZINC000655235556   -0.5100
     16 C16        -8.1741    0.4207   53.2254 C.2     1  ZINC000655235556    0.2200
     17 C17        -9.3622   -0.3780   53.6962 C.3     1  ZINC000655235556    0.1700
     18 H18        -9.2342   -1.4258   53.4249 H       1  ZINC000655235556    0.1100
     19 C19       -10.6527    0.1753   53.0545 C.3     1  ZINC000655235556   -0.1400
     20 C20       -11.6703    0.0775   54.2237 C.3     1  ZINC000655235556   -0.1500
     21 C21       -10.7522    0.3677   55.4377 C.3     1  ZINC000655235556    0.0500
     22 O22        -9.4969   -0.2569   55.1170 O.3     1  ZINC000655235556   -0.3700
     23 N23        -7.7256    1.5150   53.7821 N.2     1  ZINC000655235556   -0.2800
     24 N24        -6.6093    1.9229   53.0338 N.pl3   1  ZINC000655235556   -0.4700
     25 H25         1.0710    2.4050   48.7361 H       1  ZINC000655235556    0.0600
     26 H26         1.1275    0.9520   49.7626 H       1  ZINC000655235556    0.0600
     27 H27         0.4679    0.8508   48.1125 H       1  ZINC000655235556    0.1100
     28 H28         1.2916    2.9598   50.6488 H       1  ZINC000655235556    0.1500
     29 H29        -0.9934    4.7849   53.7572 H       1  ZINC000655235556    0.1400
     30 H30        -3.0487    3.7842   52.8593 H       1  ZINC000655235556    0.1400
     31 H31        -4.0204    1.6393   52.4758 H       1  ZINC000655235556    0.4000
     32 H32        -5.7501    1.6273   50.1284 H       1  ZINC000655235556    0.1000
     33 H33        -5.1941    0.0209   50.6562 H       1  ZINC000655235556    0.1100
     34 H34       -10.5179    1.2111   52.7431 H       1  ZINC000655235556    0.0800
     35 H35       -10.9656   -0.4457   52.2151 H       1  ZINC000655235556    0.0900
     36 H36       -12.4494    0.8342   54.1306 H       1  ZINC000655235556    0.0900
     37 H37       -12.1012   -0.9216   54.2869 H       1  ZINC000655235556    0.0800
     38 H38       -10.6196    1.4422   55.5635 H       1  ZINC000655235556    0.0600
     39 H39       -11.1719   -0.0712   56.3428 H       1  ZINC000655235556    0.0900
     40 H40        -6.0553    2.7027   53.1944 H       1  ZINC000655235556    0.4400
@<TRIPOS>BOND
     1     1     2    1
     2     1    25    1
     3     1    26    1
     4     1    27    1
     5     2     3    1
     6     3     9   ar
     7     3     4   ar
     8     4     5   ar
     9     4    28    1
    10     5     6    1
    11     5     7   ar
    12     7     8   ar
    13     7    29    1
    14     8     9   ar
    15     8    30    1
    16     9    10    1
    17    10    11    2
    18    10    12   am
    19    12    13    1
    20    12    31    1
    21    13    14    1
    22    13    32    1
    23    13    33    1
    24    14    24    1
    25    14    15    2
    26    15    16    1
    27    16    17    1
    28    16    23    2
    29    17    18    1
    30    17    22    1
    31    17    19    1
    32    19    20    1
    33    19    34    1
    34    19    35    1
    35    20    21    1
    36    20    36    1
    37    20    37    1
    38    21    22    1
    39    21    38    1
    40    21    39    1
    41    23    24    1
    42    24    40    1
@<TRIPOS>SUBSTRUCTURE
     1 ZINC000655235556        1 TEMP              0 ****  ****    0 ROOT


##########                                Name:    ZINC000590699876
##########                DOCK_Rotatable_Bonds:                   9
##########                         Heavy_Atoms:                  30
##########                    Molecular_Weight:              421.54
##########                DOCK_Rotatable_Bonds:                   9
##########                       Formal_Charge:          -0.0300004
##########                     HBond_Acceptors:                   9
##########                        HBond_Donors:                   1
##########                         Heavy_Atoms:                  30
##########                          Grid_Score:          -30.572647
##########                     Grid_vdw_energy:          -30.165182
##########                      Grid_es_energy:           -0.407465
##########           Internal_energy_repulsive:          103.219925

@<TRIPOS>MOLECULE
ZINC000590699876
 65 67 1 0 0
SMALL
USER_CHARGES


@<TRIPOS>ATOM
      1 C1         -2.1574    3.2382   52.7895 C.3     1  ZINC000590699876   -0.1700
      2 C2         -3.4809    3.2714   52.0698 C.2     1  ZINC000590699876    0.5100
      3 O3         -3.9164    4.3223   51.6494 O.2     1  ZINC000590699876   -0.5500
      4 N4         -4.1808    2.1332   51.8933 N.am    1  ZINC000590699876   -0.7200
      5 C5         -5.4667    2.1652   51.1920 C.3     1  ZINC000590699876    0.1100
      6 C6         -6.5371    1.5831   52.0788 C.2     1  ZINC000590699876    0.5300
      7 O7         -6.9459    0.4591   51.8779 O.2     1  ZINC000590699876   -0.5200
      8 N8         -7.0402    2.3116   53.0949 N.am    1  ZINC000590699876   -0.6000
      9 C9         -6.6366    3.6843   53.4502 C.3     1  ZINC000590699876    0.1000
     10 C10        -7.8552    4.2736   54.2035 C.3     1  ZINC000590699876   -0.1300
     11 C11        -8.3551    3.0398   55.0005 C.3     1  ZINC000590699876   -0.1300
     12 C12        -8.0870    1.8714   54.0287 C.3     1  ZINC000590699876    0.1200
     13 H13        -7.7391    1.0001   54.5837 H       1  ZINC000590699876    0.1000
     14 C14        -9.3478    1.5302   53.2772 C.2     1  ZINC000590699876    0.5100
     15 O15        -9.5646    2.0347   52.1958 O.2     1  ZINC000590699876   -0.5200
     16 N16       -10.2346    0.6644   53.8067 N.am    1  ZINC000590699876   -0.6100
     17 C17        -9.9951    0.0473   55.1202 C.3     1  ZINC000590699876    0.1000
     18 C18       -11.2422    0.2494   55.9875 C.3     1  ZINC000590699876    0.0400
     19 N19       -12.4208   -0.2547   55.2700 N.3     1  ZINC000590699876   -0.5200
     20 C20       -13.6095   -0.2376   56.1329 C.3     1  ZINC000590699876    0.0400
     21 C21       -13.9668   -1.6484   56.5238 C.2     1  ZINC000590699876    0.5200
     22 O22       -13.3285   -2.5803   56.0819 O.2     1  ZINC000590699876   -0.5100
     23 N23       -14.9955   -1.8747   57.3647 N.am    1  ZINC000590699876   -0.6100
     24 C24       -15.7779   -0.7564   57.9084 C.3     1  ZINC000590699876    0.1100
     25 C25       -15.8042   -0.8696   59.4359 C.3     1  ZINC000590699876   -0.1400
     26 C26       -16.3259   -2.2528   59.8319 C.3     1  ZINC000590699876   -0.1200
     27 C27       -15.3872   -3.3300   59.2838 C.3     1  ZINC000590699876   -0.1300
     28 C28       -15.3597   -3.2450   57.7501 C.3     1  ZINC000590699876    0.1400
     29 H29       -16.3440   -3.4926   57.3527 H       1  ZINC000590699876    0.0700
     30 C30       -14.3228   -4.2266   57.2005 C.3     1  ZINC000590699876   -0.1400
     31 C31       -12.6566    0.5033   54.0340 C.3     1  ZINC000590699876    0.0400
     32 C32       -11.4705    0.3163   53.0893 C.3     1  ZINC000590699876    0.1200
     33 H33        -1.7432    4.2454   52.8351 H       1  ZINC000590699876    0.1000
     34 H34        -2.3032    2.8592   53.8010 H       1  ZINC000590699876    0.0900
     35 H35        -1.4683    2.5859   52.2530 H       1  ZINC000590699876    0.0900
     36 H36        -3.8331    1.2928   52.2305 H       1  ZINC000590699876    0.4100
     37 H37        -5.7203    3.1961   50.9451 H       1  ZINC000590699876    0.1000
     38 H38        -5.3954    1.5791   50.2757 H       1  ZINC000590699876    0.1000
     39 H39        -5.7615    3.6662   54.0999 H       1  ZINC000590699876    0.0800
     40 H40        -6.4302    4.2639   52.5505 H       1  ZINC000590699876    0.0800
     41 H41        -7.5488    5.0750   54.8758 H       1  ZINC000590699876    0.0900
     42 H42        -8.6157    4.6215   53.5044 H       1  ZINC000590699876    0.0800
     43 H43        -7.7850    2.9188   55.9216 H       1  ZINC000590699876    0.1000
     44 H44        -9.4207    3.1243   55.2135 H       1  ZINC000590699876    0.0900
     45 H45        -9.8052   -1.0186   54.9947 H       1  ZINC000590699876    0.0800
     46 H46        -9.1370    0.5214   55.5965 H       1  ZINC000590699876    0.0900
     47 H47       -11.1259   -0.2957   56.9243 H       1  ZINC000590699876    0.0900
     48 H48       -11.3709    1.3112   56.1978 H       1  ZINC000590699876    0.0400
     49 H49       -13.3994    0.3457   57.0294 H       1  ZINC000590699876    0.1000
     50 H50       -14.4433    0.2123   55.5939 H       1  ZINC000590699876    0.0600
     51 H51       -15.3153    0.1875   57.6200 H       1  ZINC000590699876    0.0800
     52 H52       -16.7958   -0.8001   57.5212 H       1  ZINC000590699876    0.0700
     53 H53       -14.7961   -0.7350   59.8281 H       1  ZINC000590699876    0.0700
     54 H54       -16.4603   -0.1021   59.8464 H       1  ZINC000590699876    0.0800
     55 H55       -16.3689   -2.3273   60.9185 H       1  ZINC000590699876    0.0700
     56 H56       -17.3242   -2.3964   59.4186 H       1  ZINC000590699876    0.0600
     57 H57       -14.3831   -3.1723   59.6774 H       1  ZINC000590699876    0.0700
     58 H58       -15.7466   -4.3138   59.5860 H       1  ZINC000590699876    0.0700
     59 H59       -14.5520   -5.2323   57.5528 H       1  ZINC000590699876    0.0400
     60 H60       -14.3474   -4.2088   56.1109 H       1  ZINC000590699876    0.0700
     61 H61       -13.3302   -3.9380   57.5463 H       1  ZINC000590699876    0.0700
     62 H62       -13.5661    0.1422   53.5538 H       1  ZINC000590699876    0.1100
     63 H63       -12.7656    1.5615   54.2714 H       1  ZINC000590699876    0.0300
     64 H64       -11.5875    0.9657   52.2218 H       1  ZINC000590699876    0.0900
     65 H65       -11.4193   -0.7238   52.7673 H       1  ZINC000590699876    0.0800
@<TRIPOS>BOND
     1     1     2    1
     2     1    33    1
     3     1    34    1
     4     1    35    1
     5     2     3    2
     6     2     4   am
     7     4     5    1
     8     4    36    1
     9     5     6    1
    10     5    37    1
    11     5    38    1
    12     6     7    2
    13     6     8   am
    14     8    12    1
    15     8     9    1
    16     9    10    1
    17     9    39    1
    18     9    40    1
    19    10    11    1
    20    10    41    1
    21    10    42    1
    22    11    12    1
    23    11    43    1
    24    11    44    1
    25    12    13    1
    26    12    14    1
    27    14    15    2
    28    14    16   am
    29    16    32    1
    30    16    17    1
    31    17    18    1
    32    17    45    1
    33    17    46    1
    34    18    19    1
    35    18    47    1
    36    18    48    1
    37    19    20    1
    38    19    31    1
    39    20    21    1
    40    20    49    1
    41    20    50    1
    42    21    22    2
    43    21    23   am
    44    23    28    1
    45    23    24    1
    46    24    25    1
    47    24    51    1
    48    24    52    1
    49    25    26    1
    50    25    53    1
    51    25    54    1
    52    26    27    1
    53    26    55    1
    54    26    56    1
    55    27    28    1
    56    27    57    1
    57    27    58    1
    58    28    29    1
    59    28    30    1
    60    30    59    1
    61    30    60    1
    62    30    61    1
    63    31    32    1
    64    31    62    1
    65    31    63    1
    66    32    64    1
    67    32    65    1
@<TRIPOS>SUBSTRUCTURE
     1 ZINC000590699876        1 TEMP              0 ****  ****    0 ROOT


##########                                Name:    ZINC000572148596
##########                DOCK_Rotatable_Bonds:                   4
##########                         Heavy_Atoms:                  26
##########                    Molecular_Weight:             371.463
##########                DOCK_Rotatable_Bonds:                   4
##########                       Formal_Charge:          -0.0199999
##########                     HBond_Acceptors:                   8
##########                        HBond_Donors:                   0
##########                         Heavy_Atoms:                  26
##########                          Grid_Score:          -30.554926
##########                     Grid_vdw_energy:          -29.537926
##########                      Grid_es_energy:           -1.017000
##########           Internal_energy_repulsive:            5.375370

@<TRIPOS>MOLECULE
ZINC000572148596
 47 50 1 0 0
SMALL
USER_CHARGES


@<TRIPOS>ATOM
      1 C1          3.3840    0.0618   49.0309 C.3     1  ZINC000572148596   -0.1400
      2 C2          2.2377    0.8127   48.3502 C.3     1  ZINC000572148596    0.0800
      3 H3          1.6751    0.1234   47.7206 H       1  ZINC000572148596    0.1200
      4 C4          1.3250    1.3939   49.3992 C.2     1  ZINC000572148596    0.1800
      5 N5          1.6887    1.8791   50.5496 N.2     1  ZINC000572148596   -0.3500
      6 O6          0.7229    2.2708   51.1699 O.3     1  ZINC000572148596    0.0900
      7 C7         -0.3909    2.0661   50.4493 C.2     1  ZINC000572148596    0.2300
      8 C8         -1.7723    2.4030   50.8461 C.ar    1  ZINC000572148596   -0.1200
      9 C9         -2.0367    2.9440   52.1127 C.ar    1  ZINC000572148596   -0.0100
     10 C10        -3.3333    3.2415   52.4384 C.ar    1  ZINC000572148596   -0.1900
     11 C11        -4.3437    3.0004   51.5103 C.ar    1  ZINC000572148596    0.3400
     12 N12        -5.6572    3.3009   51.8365 N.3     1  ZINC000572148596   -0.4700
     13 C13        -6.3781    2.0989   52.2802 C.3     1  ZINC000572148596    0.0300
     14 C14        -7.8028    2.4855   52.6861 C.3     1  ZINC000572148596    0.0900
     15 H15        -8.3586    1.5892   52.9616 H       1  ZINC000572148596    0.1100
     16 C16        -7.7523    3.4422   53.8791 C.3     1  ZINC000572148596   -0.1800
     17 O17        -8.4491    3.1286   51.5843 O.3     1  ZINC000572148596   -0.3700
     18 C18        -7.7741    4.3034   51.1267 C.3     1  ZINC000572148596    0.0800
     19 H19        -7.7373    5.0384   51.9308 H       1  ZINC000572148596    0.0700
     20 C20        -8.5260    4.8916   49.9310 C.3     1  ZINC000572148596   -0.1400
     21 C21        -6.3491    3.9352   50.7051 C.3     1  ZINC000572148596    0.0300
     22 N22        -4.0666    2.4882   50.3193 N.ar    1  ZINC000572148596   -0.5200
     23 C23        -2.8332    2.1934   49.9641 C.ar    1  ZINC000572148596    0.1900
     24 N24        -0.0091    1.5096   49.3125 N.2     1  ZINC000572148596   -0.4700
     25 C25         2.7992    1.9240   47.5013 C.2     1  ZINC000572148596    0.0400
     26 N26         3.0251    1.8429   46.2335 N.2     1  ZINC000572148596   -0.4500
     27 C27         3.5193    2.9115   45.6416 C.2     1  ZINC000572148596    0.0400
     28 C28         3.7215    3.9521   46.4554 C.2     1  ZINC000572148596   -0.2500
     29 S29         3.2224    3.4773   48.0771 S.3     1  ZINC000572148596    0.1400
     30 H30         3.9467    0.7512   49.6605 H       1  ZINC000572148596    0.0800
     31 H31         2.9778   -0.7419   49.6448 H       1  ZINC000572148596    0.0700
     32 H32         4.0441   -0.3586   48.2722 H       1  ZINC000572148596    0.0800
     33 H33        -1.2361    3.1215   52.8155 H       1  ZINC000572148596    0.1500
     34 H34        -3.5702    3.6588   53.4059 H       1  ZINC000572148596    0.1500
     35 H35        -6.4153    1.3754   51.4658 H       1  ZINC000572148596    0.0600
     36 H36        -5.8627    1.6600   53.1346 H       1  ZINC000572148596    0.1000
     37 H37        -7.1977    4.3388   53.6025 H       1  ZINC000572148596    0.0700
     38 H38        -8.7669    3.7170   54.1676 H       1  ZINC000572148596    0.0600
     39 H39        -7.2564    2.9522   54.7171 H       1  ZINC000572148596    0.0700
     40 H40        -9.5412    5.1501   50.2316 H       1  ZINC000572148596    0.0700
     41 H41        -8.0110    5.7869   49.5828 H       1  ZINC000572148596    0.0700
     42 H42        -8.5611    4.1567   49.1267 H       1  ZINC000572148596    0.0600
     43 H43        -5.8126    4.8368   50.4096 H       1  ZINC000572148596    0.1000
     44 H44        -6.3860    3.2411   49.8655 H       1  ZINC000572148596    0.0600
     45 H45        -2.6423    1.7772   48.9859 H       1  ZINC000572148596    0.1700
     46 H46         3.7428    2.9437   44.5855 H       1  ZINC000572148596    0.1800
     47 H47         4.1173    4.9153   46.1689 H       1  ZINC000572148596    0.1800
@<TRIPOS>BOND
     1     1     2    1
     2     1    30    1
     3     1    31    1
     4     1    32    1
     5     2     3    1
     6     2     4    1
     7     2    25    1
     8     4    24    1
     9     4     5    2
    10     5     6    1
    11     6     7    1
    12     7     8    1
    13     7    24    2
    14     8    23   ar
    15     8     9   ar
    16     9    10   ar
    17     9    33    1
    18    10    11   ar
    19    10    34    1
    20    11    12    1
    21    11    22   ar
    22    12    21    1
    23    12    13    1
    24    13    14    1
    25    13    35    1
    26    13    36    1
    27    14    15    1
    28    14    16    1
    29    14    17    1
    30    16    37    1
    31    16    38    1
    32    16    39    1
    33    17    18    1
    34    18    19    1
    35    18    20    1
    36    18    21    1
    37    20    40    1
    38    20    41    1
    39    20    42    1
    40    21    43    1
    41    21    44    1
    42    22    23   ar
    43    23    45    1
    44    25    29    1
    45    25    26    2
    46    26    27    1
    47    27    28    2
    48    27    46    1
    49    28    29    1
    50    28    47    1
@<TRIPOS>SUBSTRUCTURE
     1 ZINC000572148596        1 TEMP              0 ****  ****    0 ROOT


##########                                Name:    ZINC000991934963
##########                DOCK_Rotatable_Bonds:                   8
##########                         Heavy_Atoms:                  27
##########                    Molecular_Weight:             370.495
##########                DOCK_Rotatable_Bonds:                   8
##########                       Formal_Charge:          -0.0499997
##########                     HBond_Acceptors:                   6
##########                        HBond_Donors:                   1
##########                         Heavy_Atoms:                  27
##########                          Grid_Score:          -30.545229
##########                     Grid_vdw_energy:          -30.607681
##########                      Grid_es_energy:            0.062452
##########           Internal_energy_repulsive:           19.344452

@<TRIPOS>MOLECULE
ZINC000991934963
 57 61 1 0 0
SMALL
USER_CHARGES


@<TRIPOS>ATOM
      1 C1          0.8554    1.6034   48.3375 C.3     1  ZINC000991934963    0.0400
      2 O2          0.8943    2.4057   49.5194 O.3     1  ZINC000991934963   -0.2900
      3 C3         -0.2772    2.5958   50.1724 C.ar    1  ZINC000991934963    0.5000
      4 N4         -1.3776    2.0326   49.7010 N.ar    1  ZINC000991934963   -0.5700
      5 C5         -2.5383    2.1978   50.3141 C.ar    1  ZINC000991934963    0.1900
      6 C6         -2.5917    2.9714   51.4625 C.ar    1  ZINC000991934963   -0.2700
      7 C7         -1.4196    3.5464   51.9282 C.ar    1  ZINC000991934963    0.2200
      8 C8         -1.4286    4.3956   53.1731 C.3     1  ZINC000991934963    0.1000
      9 N9         -2.6227    4.0837   53.9699 N.3     1  ZINC000991934963   -0.4900
     10 C10        -3.6229    5.1954   53.8953 C.3     1  ZINC000991934963    0.0400
     11 C11        -3.9835    5.5673   55.3678 C.3     1  ZINC000991934963   -0.1400
     12 C12        -3.6427    4.2687   56.0959 C.3     1  ZINC000991934963    0.1700
     13 N13        -4.6653    3.2374   55.9038 N.am    1  ZINC000991934963   -0.7000
     14 C14        -5.8790    3.3776   56.4728 C.2     1  ZINC000991934963    0.5200
     15 O15        -6.1242    4.3568   57.1449 O.2     1  ZINC000991934963   -0.5300
     16 C16        -6.9314    2.3174   56.2737 C.3     1  ZINC000991934963   -0.1100
     17 C17        -7.4544    1.8559   57.6355 C.3     1  ZINC000991934963   -0.1300
     18 H18        -6.6971    1.7151   58.4068 H       1  ZINC000991934963    0.1200
     19 C19        -8.6583    0.9118   57.6470 C.3     1  ZINC000991934963   -0.1700
     20 C20        -8.8255    2.3712   58.0774 C.3     1  ZINC000991934963   -0.1200
     21 H21        -9.3553    3.0388   57.3979 H       1  ZINC000991934963    0.1000
     22 C22        -9.0296    2.6491   59.5682 C.3     1  ZINC000991934963   -0.1200
     23 C23        -9.9722    1.7213   60.3372 C.3     1  ZINC000991934963   -0.1800
     24 C24        -8.4612    1.6328   60.5605 C.3     1  ZINC000991934963   -0.1800
     25 C25        -3.1176    4.3205   57.5266 C.3     1  ZINC000991934963   -0.1200
     26 C26        -2.1830    3.0723   57.5862 C.3     1  ZINC000991934963   -0.1200
     27 C27        -1.7304    2.8076   56.1182 C.3     1  ZINC000991934963   -0.1000
     28 C28        -2.2959    3.9533   55.3490 C.3     1  ZINC000991934963    0.0500
     29 H29        -1.6675    4.8123   55.5844 H       1  ZINC000991934963    0.0400
     30 N30        -0.2920    3.3359   51.2693 N.ar    1  ZINC000991934963   -0.5000
     31 H31         0.1854    2.0609   47.6096 H       1  ZINC000991934963    0.0600
     32 H32         1.8573    1.5314   47.9141 H       1  ZINC000991934963    0.1100
     33 H33         0.4940    0.6058   48.5873 H       1  ZINC000991934963    0.0600
     34 H34        -3.4333    1.7358   49.9241 H       1  ZINC000991934963    0.1700
     35 H35        -3.5258    3.1233   51.9830 H       1  ZINC000991934963    0.1500
     36 H36        -0.5348    4.1877   53.7614 H       1  ZINC000991934963    0.1000
     37 H37        -1.4430    5.4492   52.8942 H       1  ZINC000991934963    0.0600
     38 H38        -3.1876    6.0564   53.3882 H       1  ZINC000991934963    0.0600
     39 H39        -4.5148    4.8607   53.3653 H       1  ZINC000991934963    0.0800
     40 H40        -3.3662    6.3910   55.7262 H       1  ZINC000991934963    0.0800
     41 H41        -5.0433    5.8037   55.4639 H       1  ZINC000991934963    0.0900
     42 H42        -4.4688    2.4535   55.3673 H       1  ZINC000991934963    0.4000
     43 H43        -7.7544    2.7279   55.6887 H       1  ZINC000991934963    0.1000
     44 H44        -6.4972    1.4691   55.7448 H       1  ZINC000991934963    0.0900
     45 H45        -9.0778    0.6195   56.6844 H       1  ZINC000991934963    0.0900
     46 H46        -8.6932    0.1502   58.4260 H       1  ZINC000991934963    0.1000
     47 H47        -9.0104    3.7000   59.8573 H       1  ZINC000991934963    0.1000
     48 H48       -10.5736    2.1617   61.1326 H       1  ZINC000991934963    0.0900
     49 H49       -10.4470    0.9129   59.7812 H       1  ZINC000991934963    0.0900
     50 H50        -7.9418    0.7662   60.1515 H       1  ZINC000991934963    0.0900
     51 H51        -8.0684    2.0149   61.5028 H       1  ZINC000991934963    0.0900
     52 H52        -2.5523    5.2364   57.6989 H       1  ZINC000991934963    0.0800
     53 H53        -3.9342    4.2276   58.2427 H       1  ZINC000991934963    0.0800
     54 H54        -1.3171    3.2808   58.2146 H       1  ZINC000991934963    0.0700
     55 H55        -2.7295    2.2117   57.9719 H       1  ZINC000991934963    0.0700
     56 H56        -0.6426    2.8020   56.0495 H       1  ZINC000991934963    0.0700
     57 H57        -2.1414    1.8652   55.7563 H       1  ZINC000991934963    0.0700
@<TRIPOS>BOND
     1     1     2    1
     2     1    31    1
     3     1    32    1
     4     1    33    1
     5     2     3    1
     6     3    30   ar
     7     3     4   ar
     8     4     5   ar
     9     5     6   ar
    10     5    34    1
    11     6     7   ar
    12     6    35    1
    13     7     8    1
    14     7    30   ar
    15     8     9    1
    16     8    36    1
    17     8    37    1
    18     9    28    1
    19     9    10    1
    20    10    11    1
    21    10    38    1
    22    10    39    1
    23    11    12    1
    24    11    40    1
    25    11    41    1
    26    12    28    1
    27    12    13    1
    28    12    25    1
    29    13    14   am
    30    13    42    1
    31    14    15    2
    32    14    16    1
    33    16    17    1
    34    16    43    1
    35    16    44    1
    36    17    18    1
    37    17    20    1
    38    17    19    1
    39    19    20    1
    40    19    45    1
    41    19    46    1
    42    20    21    1
    43    20    22    1
    44    22    24    1
    45    22    23    1
    46    22    47    1
    47    23    24    1
    48    23    48    1
    49    23    49    1
    50    24    50    1
    51    24    51    1
    52    25    26    1
    53    25    52    1
    54    25    53    1
    55    26    27    1
    56    26    54    1
    57    26    55    1
    58    27    28    1
    59    27    56    1
    60    27    57    1
    61    28    29    1
@<TRIPOS>SUBSTRUCTURE
     1 ZINC000991934963        1 TEMP              0 ****  ****    0 ROOT


##########                                Name:    ZINC001371344729
##########                DOCK_Rotatable_Bonds:                   9
##########                         Heavy_Atoms:                  24
##########                    Molecular_Weight:             332.399
##########                DOCK_Rotatable_Bonds:                   9
##########                       Formal_Charge:          0.00999983
##########                     HBond_Acceptors:                   6
##########                        HBond_Donors:                   1
##########                         Heavy_Atoms:                  24
##########                          Grid_Score:          -30.535490
##########                     Grid_vdw_energy:          -29.630754
##########                      Grid_es_energy:           -0.904736
##########           Internal_energy_repulsive:           20.184717

@<TRIPOS>MOLECULE
ZINC001371344729
 48 49 1 0 0
SMALL
USER_CHARGES


@<TRIPOS>ATOM
      1 C1         -7.7223    0.8197   58.0368 C.3     1  ZINC001371344729   -0.1800
      2 C2         -8.9978    1.6565   57.9210 C.3     1  ZINC001371344729    0.1000
      3 N3         -9.7603    1.2248   56.7469 N.am    1  ZINC001371344729   -0.6100
      4 C4        -10.7104    0.2769   56.8716 C.2     1  ZINC001371344729    0.5100
      5 O5        -11.3426   -0.0794   55.8999 O.2     1  ZINC001371344729   -0.5200
      6 C6        -10.9871   -0.3400   58.2184 C.3     1  ZINC001371344729   -0.0600
      7 C7        -11.9602   -1.4796   58.0585 C.2     1  ZINC001371344729   -0.0100
      8 C8        -11.6753   -2.6919   57.5500 C.2     1  ZINC001371344729   -0.1600
      9 C9        -10.3367   -3.1597   57.0395 C.3     1  ZINC001371344729   -0.0800
     10 C10       -12.8740   -3.4408   57.5805 C.2     1  ZINC001371344729   -0.2100
     11 C11       -13.8175   -2.6447   58.1147 C.2     1  ZINC001371344729   -0.0300
     12 O12       -13.2591   -1.4567   58.3989 O.3     1  ZINC001371344729   -0.1700
     13 C13        -9.4901    1.8233   55.4374 C.3     1  ZINC001371344729    0.1200
     14 H14        -8.6389    2.4995   55.5156 H       1  ZINC001371344729    0.1100
     15 C15       -10.7203    2.6038   54.9699 C.3     1  ZINC001371344729   -0.1600
     16 C16        -9.1728    0.7187   54.4274 C.3     1  ZINC001371344729    0.1100
     17 N17        -8.0417    1.1306   53.5924 N.am    1  ZINC001371344729   -0.7200
     18 C18        -7.5498    0.2893   52.6614 C.2     1  ZINC001371344729    0.5900
     19 O19        -8.0458   -0.8112   52.5136 O.2     1  ZINC001371344729   -0.5300
     20 C20        -6.4109    0.7031   51.8227 C.2     1  ZINC001371344729   -0.2300
     21 C21        -6.0470    0.1872   50.6133 C.2     1  ZINC001371344729    0.0200
     22 O22        -4.9621    0.8401   50.1854 O.3     1  ZINC001371344729   -0.1700
     23 C23        -4.5823    1.7717   51.0739 C.2     1  ZINC001371344729   -0.0100
     24 C24        -3.3979    2.6912   50.9232 C.3     1  ZINC001371344729   -0.0800
     25 C25        -5.4255    1.7537   52.1174 C.2     1  ZINC001371344729   -0.1600
     26 H26        -7.1167    0.9546   57.1406 H       1  ZINC001371344729    0.0700
     27 H27        -7.1550    1.1409   58.9104 H       1  ZINC001371344729    0.0700
     28 H28        -7.9863   -0.2327   58.1418 H       1  ZINC001371344729    0.0600
     29 H29        -8.7337    2.7088   57.8159 H       1  ZINC001371344729    0.0900
     30 H30        -9.6034    1.5216   58.8173 H       1  ZINC001371344729    0.0800
     31 H31       -11.4141    0.4120   58.8818 H       1  ZINC001371344729    0.1100
     32 H32       -10.0563   -0.7142   58.6447 H       1  ZINC001371344729    0.1200
     33 H33        -9.7736   -3.6104   57.8567 H       1  ZINC001371344729    0.0700
     34 H34       -10.4862   -3.8973   56.2511 H       1  ZINC001371344729    0.0700
     35 H35        -9.7823   -2.3097   56.6417 H       1  ZINC001371344729    0.0600
     36 H36       -13.0062   -4.4581   57.2425 H       1  ZINC001371344729    0.1500
     37 H37       -14.8502   -2.9133   58.2816 H       1  ZINC001371344729    0.2000
     38 H38       -10.9463    3.3908   55.6894 H       1  ZINC001371344729    0.0700
     39 H39       -10.5193    3.0492   53.9955 H       1  ZINC001371344729    0.0700
     40 H40       -11.5715    1.9275   54.8917 H       1  ZINC001371344729    0.0700
     41 H41        -8.9169   -0.1976   54.9595 H       1  ZINC001371344729    0.0800
     42 H42       -10.0442    0.5414   53.7972 H       1  ZINC001371344729    0.0800
     43 H43        -7.6469    2.0088   53.7095 H       1  ZINC001371344729    0.4000
     44 H44        -6.5513   -0.6116   50.0896 H       1  ZINC001371344729    0.2100
     45 H45        -2.5154    2.2211   51.3572 H       1  ZINC001371344729    0.0800
     46 H46        -3.2222    2.8871   49.8655 H       1  ZINC001371344729    0.0800
     47 H47        -3.5995    3.6306   51.4381 H       1  ZINC001371344729    0.0900
     48 H48        -5.3882    2.3826   52.9946 H       1  ZINC001371344729    0.1600
@<TRIPOS>BOND
     1     1     2    1
     2     1    26    1
     3     1    27    1
     4     1    28    1
     5     2     3    1
     6     2    29    1
     7     2    30    1
     8     3     4   am
     9     3    13    1
    10     4     5    2
    11     4     6    1
    12     6     7    1
    13     6    31    1
    14     6    32    1
    15     7    12    1
    16     7     8    2
    17     8     9    1
    18     8    10    1
    19     9    33    1
    20     9    34    1
    21     9    35    1
    22    10    11    2
    23    10    36    1
    24    11    12    1
    25    11    37    1
    26    13    14    1
    27    13    15    1
    28    13    16    1
    29    15    38    1
    30    15    39    1
    31    15    40    1
    32    16    17    1
    33    16    41    1
    34    16    42    1
    35    17    18   am
    36    17    43    1
    37    18    19    2
    38    18    20    1
    39    20    25    1
    40    20    21    2
    41    21    22    1
    42    21    44    1
    43    22    23    1
    44    23    24    1
    45    23    25    2
    46    24    45    1
    47    24    46    1
    48    24    47    1
    49    25    48    1
@<TRIPOS>SUBSTRUCTURE
     1 ZINC001371344729        1 TEMP              0 ****  ****    0 ROOT


##########                                Name:    ZINC000004313955
##########                DOCK_Rotatable_Bonds:                   6
##########                         Heavy_Atoms:                  26
##########                    Molecular_Weight:             414.358
##########                DOCK_Rotatable_Bonds:                   6
##########                       Formal_Charge:           0.0299997
##########                     HBond_Acceptors:                   9
##########                        HBond_Donors:                   2
##########                         Heavy_Atoms:                  26
##########                          Grid_Score:          -30.513966
##########                     Grid_vdw_energy:          -29.013458
##########                      Grid_es_energy:           -1.500507
##########           Internal_energy_repulsive:           15.675504

@<TRIPOS>MOLECULE
ZINC000004313955
 47 49 1 0 0
SMALL
USER_CHARGES


@<TRIPOS>ATOM
      1 C1        -11.4273    0.7424   58.7821 C.3     1  ZINC000004313955   -0.1500
      2 C2        -10.1833    1.0759   57.9561 C.3     1  ZINC000004313955   -0.1100
      3 H3         -9.3990    0.3499   58.1702 H       1  ZINC000004313955    0.0800
      4 C4         -9.6921    2.4798   58.3167 C.3     1  ZINC000004313955   -0.1100
      5 C5         -8.4289    2.8017   57.5150 C.3     1  ZINC000004313955   -0.1100
      6 H6         -8.0663    3.7923   57.7896 H       1  ZINC000004313955    0.0900
      7 C7         -7.3505    1.7603   57.8213 C.3     1  ZINC000004313955   -0.1500
      8 C8         -8.7574    2.7739   56.0190 C.3     1  ZINC000004313955    0.1200
      9 N9         -9.3652    1.4767   55.6924 N.am    1  ZINC000004313955   -0.6000
     10 C10        -8.8618    0.7121   54.7032 C.2     1  ZINC000004313955    0.5400
     11 O11        -9.3717   -0.3574   54.4443 O.2     1  ZINC000004313955   -0.5300
     12 C12        -7.6655    1.1862   53.9190 C.3     1  ZINC000004313955   -0.1400
     13 S13        -8.1773    2.4801   52.7612 S.3     1  ZINC000004313955    0.0800
     14 C14        -6.5999    3.0963   52.2745 C.2     1  ZINC000004313955    0.1100
     15 N15        -6.2263    4.3562   52.2585 N.2     1  ZINC000004313955   -0.2800
     16 N16        -5.0114    4.4511   51.8502 N.2     1  ZINC000004313955   -0.2400
     17 C17        -4.5347    3.2580   51.5807 C.2     1  ZINC000004313955    0.2500
     18 C18        -3.1768    2.9454   51.0871 C.ar    1  ZINC000004313955   -0.0100
     19 C19        -3.0087    2.2894   49.8669 C.ar    1  ZINC000004313955   -0.0700
     20 C20        -1.7391    2.0002   49.4114 C.ar    1  ZINC000004313955   -0.1100
     21 C21        -0.6322    2.3589   50.1620 C.ar    1  ZINC000004313955   -0.0100
     22 Cl22        0.9620    1.9906   49.5816 Cl      1  ZINC000004313955   -0.0500
     23 C23        -0.7914    3.0105   51.3734 C.ar    1  ZINC000004313955   -0.1100
     24 C24        -2.0564    3.3106   51.8374 C.ar    1  ZINC000004313955    0.0100
     25 Cl25       -2.2549    4.1274   53.3563 Cl      1  ZINC000004313955   -0.0100
     26 N26        -5.5357    2.3531   51.8493 N.pl3   1  ZINC000004313955   -0.3000
     27 N27        -5.4795    0.9952   51.7117 N.3     1  ZINC000004313955   -0.5800
     28 C28       -10.5315    1.0277   56.4651 C.3     1  ZINC000004313955    0.1100
     29 H29       -11.7775   -0.2571   58.5241 H       1  ZINC000004313955    0.0600
     30 H30       -11.1793    0.7779   59.8429 H       1  ZINC000004313955    0.0600
     31 H31       -12.2113    1.4686   58.5677 H       1  ZINC000004313955    0.0600
     32 H32       -10.4679    3.2080   58.0800 H       1  ZINC000004313955    0.0700
     33 H33        -9.4669    2.5231   59.3824 H       1  ZINC000004313955    0.0700
     34 H34        -7.7131    0.7700   57.5456 H       1  ZINC000004313955    0.0600
     35 H35        -6.4511    1.9900   57.2501 H       1  ZINC000004313955    0.0600
     36 H36        -7.1193    1.7791   58.8863 H       1  ZINC000004313955    0.0600
     37 H37        -9.4578    3.5752   55.7838 H       1  ZINC000004313955    0.0700
     38 H38        -7.8422    2.9044   55.4415 H       1  ZINC000004313955    0.1000
     39 H39        -6.9177    1.5864   54.6036 H       1  ZINC000004313955    0.1300
     40 H40        -7.2399    0.3499   53.3644 H       1  ZINC000004313955    0.1300
     41 H41        -3.8710    2.0083   49.2804 H       1  ZINC000004313955    0.1600
     42 H42        -1.6081    1.4925   48.4671 H       1  ZINC000004313955    0.1500
     43 H43         0.0757    3.2877   51.9544 H       1  ZINC000004313955    0.1500
     44 H44        -5.3688    0.5453   52.6081 H       1  ZINC000004313955    0.3700
     45 H45        -6.2948    0.6465   51.2304 H       1  ZINC000004313955    0.3800
     46 H46       -10.7867    0.0068   56.1814 H       1  ZINC000004313955    0.0900
     47 H47       -11.3770    1.6865   56.2666 H       1  ZINC000004313955    0.0800
@<TRIPOS>BOND
     1     1     2    1
     2     1    29    1
     3     1    30    1
     4     1    31    1
     5     2     3    1
     6     2    28    1
     7     2     4    1
     8     4     5    1
     9     4    32    1
    10     4    33    1
    11     5     6    1
    12     5     7    1
    13     5     8    1
    14     7    34    1
    15     7    35    1
    16     7    36    1
    17     8     9    1
    18     8    37    1
    19     8    38    1
    20     9    10   am
    21     9    28    1
    22    10    11    2
    23    10    12    1
    24    12    13    1
    25    12    39    1
    26    12    40    1
    27    13    14    1
    28    14    26    1
    29    14    15    2
    30    15    16    1
    31    16    17    2
    32    17    18    1
    33    17    26    1
    34    18    24   ar
    35    18    19   ar
    36    19    20   ar
    37    19    41    1
    38    20    21   ar
    39    20    42    1
    40    21    22    1
    41    21    23   ar
    42    23    24   ar
    43    23    43    1
    44    24    25    1
    45    26    27    1
    46    27    44    1
    47    27    45    1
    48    28    46    1
    49    28    47    1
@<TRIPOS>SUBSTRUCTURE
     1 ZINC000004313955        1 TEMP              0 ****  ****    0 ROOT


##########                                Name:    ZINC001707162141
##########                DOCK_Rotatable_Bonds:                   9
##########                         Heavy_Atoms:                  25
##########                    Molecular_Weight:               344.5
##########                DOCK_Rotatable_Bonds:                   9
##########                       Formal_Charge:          -0.0299999
##########                     HBond_Acceptors:                   5
##########                        HBond_Donors:                   1
##########                         Heavy_Atoms:                  25
##########                          Grid_Score:          -30.511032
##########                     Grid_vdw_energy:          -30.444523
##########                      Grid_es_energy:           -0.066509
##########           Internal_energy_repulsive:           79.256859

@<TRIPOS>MOLECULE
ZINC001707162141
 57 59 1 0 0
SMALL
USER_CHARGES


@<TRIPOS>ATOM
      1 C1        -11.4862    0.3769   52.2526 C.3     1  ZINC001707162141   -0.1800
      2 C2        -10.5515    0.4797   53.4595 C.3     1  ZINC001707162141    0.1700
      3 H3        -10.8759    1.2988   54.1015 H       1  ZINC001707162141    0.1000
      4 N4        -10.5879   -0.7791   54.2157 N.3     1  ZINC001707162141   -0.6400
      5 C5        -10.2992   -0.5477   55.6374 C.3     1  ZINC001707162141    0.0700
      6 C6        -10.9858   -1.6251   56.4792 C.3     1  ZINC001707162141    0.1500
      7 H7        -10.5458   -2.5974   56.2578 H       1  ZINC001707162141    0.0700
      8 C8        -12.4835   -1.6508   56.1582 C.3     1  ZINC001707162141   -0.1200
      9 C9        -13.1863   -2.6309   57.1001 C.3     1  ZINC001707162141   -0.0900
     10 H10       -12.7507   -3.6231   56.9825 H       1  ZINC001707162141    0.0700
     11 C11       -14.6770   -2.6851   56.7596 C.3     1  ZINC001707162141   -0.1500
     12 C12       -13.0106   -2.1653   58.5473 C.3     1  ZINC001707162141   -0.1300
     13 C13       -11.5189   -2.1454   58.8955 C.3     1  ZINC001707162141    0.1100
     14 N14       -10.8132   -1.3198   57.9060 N.am    1  ZINC001707162141   -0.6100
     15 C15       -10.0230   -0.3014   58.2997 C.2     1  ZINC001707162141    0.5100
     16 O16        -9.4458    0.3728   57.4731 O.2     1  ZINC001707162141   -0.4800
     17 C17        -9.8566   -0.0004   59.7669 C.3     1  ZINC001707162141   -0.1400
     18 C18        -8.8380    1.1274   59.9438 C.3     1  ZINC001707162141   -0.0900
     19 C19        -8.8357    1.5883   61.4028 C.3     1  ZINC001707162141   -0.0900
     20 C20        -8.4531    0.4153   62.3076 C.3     1  ZINC001707162141   -0.1500
     21 C21        -9.5040   -0.0816   63.3024 C.3     1  ZINC001707162141   -0.1800
     22 C22        -8.2873    0.7003   63.8016 C.3     1  ZINC001707162141   -0.1800
     23 C23        -9.1451    0.7401   52.9848 C.ar    1  ZINC001707162141    0.3500
     24 N24        -8.7480    1.9842   52.8077 N.ar    1  ZINC001707162141   -0.5000
     25 C25        -7.5186    2.2515   52.3973 C.ar    1  ZINC001707162141    0.1500
     26 C26        -6.6498    1.2022   52.1427 C.ar    1  ZINC001707162141   -0.2400
     27 C27        -7.1056   -0.0926   52.3351 C.ar    1  ZINC001707162141    0.1500
     28 N28        -8.3468   -0.2825   52.7527 N.ar    1  ZINC001707162141   -0.5200
     29 H29       -12.5034    0.1885   52.5958 H       1  ZINC001707162141    0.0600
     30 H30       -11.4591    1.3109   51.6914 H       1  ZINC001707162141    0.0600
     31 H31       -11.1619   -0.4422   51.6107 H       1  ZINC001707162141    0.0600
     32 H32       -11.4746   -1.2461   54.0983 H       1  ZINC001707162141    0.3300
     33 H33        -9.2224   -0.5901   55.8011 H       1  ZINC001707162141    0.1000
     34 H34       -10.6727    0.4340   55.9288 H       1  ZINC001707162141    0.0200
     35 H35       -12.9016   -0.6533   56.2930 H       1  ZINC001707162141    0.0700
     36 H36       -12.6289   -1.9702   55.1262 H       1  ZINC001707162141    0.0700
     37 H37       -15.1130   -1.6931   56.8777 H       1  ZINC001707162141    0.0500
     38 H38       -14.8024   -3.0168   55.7289 H       1  ZINC001707162141    0.0600
     39 H39       -15.1775   -3.3841   57.4297 H       1  ZINC001707162141    0.0600
     40 H40       -13.5311   -2.8509   59.2158 H       1  ZINC001707162141    0.0700
     41 H41       -13.4238   -1.1629   58.6597 H       1  ZINC001707162141    0.0700
     42 H42       -11.1246   -3.1613   58.8717 H       1  ZINC001707162141    0.0600
     43 H43       -11.3814   -1.7212   59.8901 H       1  ZINC001707162141    0.0800
     44 H44       -10.8149    0.3065   60.1858 H       1  ZINC001707162141    0.0800
     45 H45        -9.5035   -0.8932   60.2831 H       1  ZINC001707162141    0.0800
     46 H46        -7.8452    0.7659   59.6754 H       1  ZINC001707162141    0.0700
     47 H47        -9.1066    1.9641   59.2989 H       1  ZINC001707162141    0.0700
     48 H48        -8.1129    2.3945   61.5280 H       1  ZINC001707162141    0.0600
     49 H49        -9.8294    1.9461   61.6724 H       1  ZINC001707162141    0.0600
     50 H50        -7.7920   -0.3272   61.8605 H       1  ZINC001707162141    0.1000
     51 H51       -10.4679    0.4272   63.3122 H       1  ZINC001707162141    0.0900
     52 H52        -9.5345   -1.1513   63.5098 H       1  ZINC001707162141    0.0900
     53 H53        -7.5175    0.1452   64.3375 H       1  ZINC001707162141    0.0900
     54 H54        -8.4509    1.7235   64.1399 H       1  ZINC001707162141    0.0900
     55 H55        -7.1982    3.2734   52.2579 H       1  ZINC001707162141    0.1600
     56 H56        -5.6418    1.3887   51.8028 H       1  ZINC001707162141    0.1400
     57 H57        -6.4565   -0.9349   52.1464 H       1  ZINC001707162141    0.1600
@<TRIPOS>BOND
     1     1     2    1
     2     1    29    1
     3     1    30    1
     4     1    31    1
     5     2     3    1
     6     2     4    1
     7     2    23    1
     8     4     5    1
     9     4    32    1
    10     5     6    1
    11     5    33    1
    12     5    34    1
    13     6     7    1
    14     6    14    1
    15     6     8    1
    16     8     9    1
    17     8    35    1
    18     8    36    1
    19     9    10    1
    20     9    11    1
    21     9    12    1
    22    11    37    1
    23    11    38    1
    24    11    39    1
    25    12    13    1
    26    12    40    1
    27    12    41    1
    28    13    14    1
    29    13    42    1
    30    13    43    1
    31    14    15   am
    32    15    16    2
    33    15    17    1
    34    17    18    1
    35    17    44    1
    36    17    45    1
    37    18    19    1
    38    18    46    1
    39    18    47    1
    40    19    20    1
    41    19    48    1
    42    19    49    1
    43    20    22    1
    44    20    21    1
    45    20    50    1
    46    21    22    1
    47    21    51    1
    48    21    52    1
    49    22    53    1
    50    22    54    1
    51    23    28   ar
    52    23    24   ar
    53    24    25   ar
    54    25    26   ar
    55    25    55    1
    56    26    27   ar
    57    26    56    1
    58    27    28   ar
    59    27    57    1
@<TRIPOS>SUBSTRUCTURE
     1 ZINC001707162141        1 TEMP              0 ****  ****    0 ROOT


##########                                Name:    ZINC000054627026
##########                DOCK_Rotatable_Bonds:                   5
##########                         Heavy_Atoms:                  28
##########                    Molecular_Weight:              370.37
##########                DOCK_Rotatable_Bonds:                   5
##########                       Formal_Charge:         6.85453e-07
##########                     HBond_Acceptors:                   8
##########                        HBond_Donors:                   2
##########                         Heavy_Atoms:                  28
##########                          Grid_Score:          -30.481653
##########                     Grid_vdw_energy:          -29.806643
##########                      Grid_es_energy:           -0.675012
##########           Internal_energy_repulsive:            4.238582

@<TRIPOS>MOLECULE
ZINC000054627026
 42 46 1 0 0
SMALL
USER_CHARGES


@<TRIPOS>ATOM
      1 O1         -6.3280    4.9068   50.0258 O.2     1  ZINC000054627026   -0.5200
      2 C2         -6.9544    4.0049   50.5483 C.2     1  ZINC000054627026    0.6100
      3 N3         -6.3012    2.9974   51.1606 N.am    1  ZINC000054627026   -0.6500
      4 C4         -4.9011    2.9863   51.1901 C.ar    1  ZINC000054627026    0.1400
      5 C5         -4.2258    3.5891   52.2492 C.ar    1  ZINC000054627026   -0.0900
      6 C6         -2.8479    3.5849   52.2906 C.ar    1  ZINC000054627026   -0.0900
      7 C7         -2.1260    2.9777   51.2733 C.ar    1  ZINC000054627026    0.0500
      8 N8         -0.7744    2.8080   51.0287 N.pl3   1  ZINC000054627026   -0.5900
      9 C9         -0.6601    2.1191   49.8490 C.2     1  ZINC000054627026    0.3700
     10 C10         0.6084    1.7257   49.2180 C.2     1  ZINC000054627026    0.0200
     11 C11         0.7781    1.3772   47.9111 C.2     1  ZINC000054627026   -0.1200
     12 C12         2.1428    1.0791   47.7457 C.2     1  ZINC000054627026   -0.2200
     13 C13         2.7354    1.2572   48.9447 C.2     1  ZINC000054627026   -0.0100
     14 O14         1.8075    1.6522   49.8295 O.3     1  ZINC000054627026   -0.1700
     15 N15        -1.8555    1.8632   49.3679 N.2     1  ZINC000054627026   -0.4600
     16 C16        -2.7991    2.3666   50.2000 C.ar    1  ZINC000054627026    0.0700
     17 C17        -4.1971    2.3723   50.1711 C.ar    1  ZINC000054627026   -0.0900
     18 C18        -8.4289    4.0166   50.5173 C.2     1  ZINC000054627026   -0.1000
     19 C19        -9.2036    4.7154   49.6351 C.2     1  ZINC000054627026    0.1000
     20 N20       -10.4902    4.4507   49.9508 N.pl3   1  ZINC000054627026   -0.3100
     21 C21       -11.6298    4.9544   49.3075 C.ar    1  ZINC000054627026    0.1300
     22 C22       -12.8951    4.5936   49.7505 C.ar    1  ZINC000054627026   -0.1200
     23 C23       -14.0157    5.0916   49.1151 C.ar    1  ZINC000054627026   -0.1000
     24 C24       -13.8784    5.9487   48.0386 C.ar    1  ZINC000054627026   -0.1100
     25 C25       -12.6194    6.3095   47.5949 C.ar    1  ZINC000054627026   -0.1000
     26 C26       -11.4951    5.8195   48.2301 C.ar    1  ZINC000054627026   -0.1000
     27 N27       -10.4662    3.5749   51.0454 N.2     1  ZINC000054627026   -0.0500
     28 N28        -9.2378    3.3369   51.3485 N.2     1  ZINC000054627026   -0.2000
     29 H29        -6.8009    2.2801   51.5810 H       1  ZINC000054627026    0.4200
     30 H30        -4.7852    4.0629   53.0423 H       1  ZINC000054627026    0.1500
     31 H31        -2.3305    4.0543   53.1143 H       1  ZINC000054627026    0.1300
     32 H32        -0.0446    3.1189   51.5871 H       1  ZINC000054627026    0.4300
     33 H33         0.0129    1.3372   47.1500 H       1  ZINC000054627026    0.1600
     34 H34         2.6252    0.7663   46.8315 H       1  ZINC000054627026    0.1600
     35 H35         3.7842    1.1095   49.1563 H       1  ZINC000054627026    0.2100
     36 H36        -4.7247    1.9015   49.3546 H       1  ZINC000054627026    0.1400
     37 H37        -8.8547    5.3562   48.8389 H       1  ZINC000054627026    0.2100
     38 H38       -13.0030    3.9237   50.5908 H       1  ZINC000054627026    0.1400
     39 H39       -15.0003    4.8113   49.4592 H       1  ZINC000054627026    0.1400
     40 H40       -14.7561    6.3366   47.5432 H       1  ZINC000054627026    0.1400
     41 H41       -12.5153    6.9787   46.7537 H       1  ZINC000054627026    0.1400
     42 H42       -10.5121    6.1017   47.8831 H       1  ZINC000054627026    0.1400
@<TRIPOS>BOND
     1     1     2    2
     2     2     3   am
     3     2    18    1
     4     3     4    1
     5     3    29    1
     6     4    17   ar
     7     4     5   ar
     8     5     6   ar
     9     5    30    1
    10     6     7   ar
    11     6    31    1
    12     7    16   ar
    13     7     8    1
    14     8     9    1
    15     8    32    1
    16     9    10    1
    17     9    15    2
    18    10    14    1
    19    10    11    2
    20    11    12    1
    21    11    33    1
    22    12    13    2
    23    12    34    1
    24    13    14    1
    25    13    35    1
    26    15    16    1
    27    16    17   ar
    28    17    36    1
    29    18    28    1
    30    18    19    2
    31    19    20    1
    32    19    37    1
    33    20    21    1
    34    20    27    1
    35    21    26   ar
    36    21    22   ar
    37    22    23   ar
    38    22    38    1
    39    23    24   ar
    40    23    39    1
    41    24    25   ar
    42    24    40    1
    43    25    26   ar
    44    25    41    1
    45    26    42    1
    46    27    28    2
@<TRIPOS>SUBSTRUCTURE
     1 ZINC000054627026        1 TEMP              0 ****  ****    0 ROOT


##########                                Name:    ZINC001570985666
##########                DOCK_Rotatable_Bonds:                   7
##########                         Heavy_Atoms:                  26
##########                    Molecular_Weight:             357.415
##########                DOCK_Rotatable_Bonds:                   7
##########                       Formal_Charge:          -0.0100001
##########                     HBond_Acceptors:                   9
##########                        HBond_Donors:                   3
##########                         Heavy_Atoms:                  26
##########                          Grid_Score:          -30.477530
##########                     Grid_vdw_energy:          -26.538822
##########                      Grid_es_energy:           -3.938708
##########           Internal_energy_repulsive:           10.128977

@<TRIPOS>MOLECULE
ZINC001570985666
 49 52 1 0 0
SMALL
USER_CHARGES


@<TRIPOS>ATOM
      1 C1        -11.0528    0.3620   57.1918 C.3     1  ZINC001570985666   -0.1600
      2 C2         -9.6050    0.8560   57.2235 C.3     1  ZINC001570985666    0.1300
      3 H3         -8.9347    0.0251   57.4429 H       1  ZINC001570985666    0.0800
      4 C4         -9.4486    1.9541   58.2966 C.3     1  ZINC001570985666    0.1400
      5 H5        -10.4075    2.4285   58.5056 H       1  ZINC001570985666    0.1100
      6 N6         -8.8677    1.4014   59.5227 N.am    1  ZINC001570985666   -0.7200
      7 C7         -9.5511    1.4698   60.6824 C.2     1  ZINC001570985666    0.6000
      8 O8        -10.6494    1.9914   60.7112 O.2     1  ZINC001570985666   -0.5300
      9 C9         -8.9678    0.9124   61.9150 C.2     1  ZINC001570985666   -0.2300
     10 C10        -7.8971    0.0487   61.9981 C.2     1  ZINC001570985666    0.0700
     11 N11        -7.6745   -0.2237   63.2993 N.pl3   1  ZINC001570985666   -0.5200
     12 C12        -8.5893    0.4539   64.0669 C.2     1  ZINC001570985666    0.0600
     13 C13        -8.6757    0.4165   65.5441 C.2     1  ZINC001570985666    0.2500
     14 N14        -9.5503    1.0541   66.2991 N.2     1  ZINC001570985666   -0.3100
     15 N15        -9.2946    0.7641   67.5285 N.pl3   1  ZINC001570985666   -0.2200
     16 N16        -8.2875   -0.0360   67.5775 N.2     1  ZINC001570985666   -0.0400
     17 N17        -7.8839   -0.2766   66.3764 N.2     1  ZINC001570985666   -0.2600
     18 C18        -9.3974    1.1678   63.2431 C.2     1  ZINC001570985666   -0.0600
     19 C19        -8.4737    2.9582   57.6268 C.3     1  ZINC001570985666   -0.1500
     20 C20        -8.9131    2.8759   56.1435 C.3     1  ZINC001570985666    0.1000
     21 N21        -9.2523    1.4542   55.9277 N.am    1  ZINC001570985666   -0.6200
     22 C22        -9.2413    0.8156   54.7408 C.2     1  ZINC001570985666    0.5300
     23 O23        -9.5403   -0.3583   54.6812 O.2     1  ZINC001570985666   -0.5300
     24 C24        -8.8578    1.5601   53.4881 C.3     1  ZINC001570985666   -0.1300
     25 C25        -7.3483    1.4436   53.2675 C.3     1  ZINC001570985666   -0.1000
     26 C26        -6.9436    0.2405   52.3993 C.3     1  ZINC001570985666   -0.1300
     27 C27        -5.9082    1.1658   51.7385 C.3     1  ZINC001570985666   -0.1400
     28 C28        -6.8202    2.3390   52.1342 C.3     1  ZINC001570985666   -0.1400
     29 H29       -11.1570   -0.4089   56.4282 H       1  ZINC001570985666    0.0700
     30 H30       -11.3167   -0.0522   58.1648 H       1  ZINC001570985666    0.0700
     31 H31       -11.7160    1.1953   56.9597 H       1  ZINC001570985666    0.0600
     32 H32        -7.9913    0.9864   59.5000 H       1  ZINC001570985666    0.4000
     33 H33        -7.3338   -0.3432   61.1642 H       1  ZINC001570985666    0.1800
     34 H34        -6.9780   -0.8066   63.6396 H       1  ZINC001570985666    0.4300
     35 H35        -9.7845    1.0968   68.2968 H       1  ZINC001570985666    0.4800
     36 H36       -10.2170    1.8047   63.5415 H       1  ZINC001570985666    0.1600
     37 H37        -8.6168    3.9641   58.0215 H       1  ZINC001570985666    0.0900
     38 H38        -7.4389    2.6369   57.7461 H       1  ZINC001570985666    0.0800
     39 H39        -9.7857    3.5058   55.9709 H       1  ZINC001570985666    0.0800
     40 H40        -8.0942    3.1729   55.4883 H       1  ZINC001570985666    0.0800
     41 H41        -9.3837    1.1314   52.6351 H       1  ZINC001570985666    0.0900
     42 H42        -9.1296    2.6105   53.5921 H       1  ZINC001570985666    0.0900
     43 H43        -6.7776    1.5279   54.1924 H       1  ZINC001570985666    0.1000
     44 H44        -6.4992   -0.5774   52.9665 H       1  ZINC001570985666    0.0700
     45 H45        -7.7288   -0.0915   51.7201 H       1  ZINC001570985666    0.0800
     46 H46        -4.9430    1.1730   52.2449 H       1  ZINC001570985666    0.0800
     47 H47        -5.8211    1.0246   50.6612 H       1  ZINC001570985666    0.0700
     48 H48        -7.5718    2.5806   51.3825 H       1  ZINC001570985666    0.0800
     49 H49        -6.2763    3.2151   52.4873 H       1  ZINC001570985666    0.0700
@<TRIPOS>BOND
     1     1     2    1
     2     1    29    1
     3     1    30    1
     4     1    31    1
     5     2     3    1
     6     2    21    1
     7     2     4    1
     8     4     5    1
     9     4     6    1
    10     4    19    1
    11     6     7   am
    12     6    32    1
    13     7     8    2
    14     7     9    1
    15     9    18    1
    16     9    10    2
    17    10    11    1
    18    10    33    1
    19    11    12    1
    20    11    34    1
    21    12    13    1
    22    12    18    2
    23    13    17    1
    24    13    14    2
    25    14    15    1
    26    15    16    1
    27    15    35    1
    28    16    17    2
    29    18    36    1
    30    19    20    1
    31    19    37    1
    32    19    38    1
    33    20    21    1
    34    20    39    1
    35    20    40    1
    36    21    22   am
    37    22    23    2
    38    22    24    1
    39    24    25    1
    40    24    41    1
    41    24    42    1
    42    25    28    1
    43    25    26    1
    44    25    43    1
    45    26    27    1
    46    26    44    1
    47    26    45    1
    48    27    28    1
    49    27    46    1
    50    27    47    1
    51    28    48    1
    52    28    49    1
@<TRIPOS>SUBSTRUCTURE
     1 ZINC001570985666        1 TEMP              0 ****  ****    0 ROOT


##########                                Name:    ZINC001041713551
##########                DOCK_Rotatable_Bonds:                  10
##########                         Heavy_Atoms:                  22
##########                    Molecular_Weight:             330.448
##########                DOCK_Rotatable_Bonds:                  10
##########                       Formal_Charge:          -0.0100006
##########                     HBond_Acceptors:                   7
##########                        HBond_Donors:                   2
##########                         Heavy_Atoms:                  22
##########                          Grid_Score:          -30.477121
##########                     Grid_vdw_energy:          -25.586613
##########                      Grid_es_energy:           -4.890508
##########           Internal_energy_repulsive:            5.375242

@<TRIPOS>MOLECULE
ZINC001041713551
 48 49 1 0 0
SMALL
USER_CHARGES


@<TRIPOS>ATOM
      1 C1          0.0310    1.2977   64.9488 C.3     1  ZINC001041713551   -0.1500
      2 C2          1.2287    0.8848   64.0908 C.3     1  ZINC001041713551   -0.1100
      3 C3          0.9205   -0.4389   63.3881 C.3     1  ZINC001041713551   -0.1000
      4 S4         -0.4613   -0.2046   62.2364 S.3     1  ZINC001041713551   -0.1800
      5 C5          0.3687   -0.0341   60.6325 C.3     1  ZINC001041713551   -0.1300
      6 C6          0.1766    1.3679   60.1141 C.2     1  ZINC001041713551    0.5300
      7 O7          0.1917    2.3060   60.8826 O.2     1  ZINC001041713551   -0.5100
      8 N8         -0.0121    1.5791   58.7964 N.am    1  ZINC001041713551   -0.7300
      9 C9         -0.1972    2.9421   58.2922 C.3     1  ZINC001041713551    0.1000
     10 C10        -0.2198    2.9214   56.7625 C.3     1  ZINC001041713551    0.0900
     11 O11         0.7220    2.0032   56.2039 O.3     1  ZINC001041713551   -0.5200
     12 C12        -1.6336    2.8030   56.1651 C.3     1  ZINC001041713551    0.0900
     13 N13        -1.1949    3.8144   55.1841 N.am    1  ZINC001041713551   -0.6400
     14 C14        -1.5736    4.1435   53.9331 C.2     1  ZINC001041713551    0.5500
     15 O15        -1.0153    5.0478   53.3487 O.2     1  ZINC001041713551   -0.5100
     16 C16        -2.6905    3.3878   53.2605 C.3     1  ZINC001041713551    0.0800
     17 H17        -2.8245    2.4240   53.7516 H       1  ZINC001041713551    0.0800
     18 C18        -2.3415    3.1656   51.7866 C.3     1  ZINC001041713551   -0.1500
     19 C19        -3.5069    2.4504   51.0961 C.3     1  ZINC001041713551   -0.1200
     20 C20        -4.7797    3.2841   51.2729 C.3     1  ZINC001041713551   -0.1600
     21 C21        -5.0346    3.5017   52.7666 C.3     1  ZINC001041713551    0.0600
     22 O22        -3.9004    4.1425   53.3538 O.3     1  ZINC001041713551   -0.3600
     23 C23        -0.1752    4.3210   56.1229 C.3     1  ZINC001041713551    0.1200
     24 H24        -0.1644    0.5273   65.6947 H       1  ZINC001041713551    0.0600
     25 H25         0.2506    2.2407   65.4493 H       1  ZINC001041713551    0.0600
     26 H26        -0.8463    1.4193   64.3135 H       1  ZINC001041713551    0.0600
     27 H27         1.4241    1.6552   63.3449 H       1  ZINC001041713551    0.0700
     28 H28         2.1060    0.7632   64.7261 H       1  ZINC001041713551    0.0700
     29 H29         1.8004   -0.7713   62.8372 H       1  ZINC001041713551    0.0800
     30 H30         0.6513   -1.1902   64.1304 H       1  ZINC001041713551    0.0800
     31 H31         1.4335   -0.2348   60.7514 H       1  ZINC001041713551    0.1100
     32 H32        -0.0583   -0.7448   59.9250 H       1  ZINC001041713551    0.1100
     33 H33        -0.0255    0.8287   58.1819 H       1  ZINC001041713551    0.4000
     34 H34        -1.1405    3.3421   58.6641 H       1  ZINC001041713551    0.0900
     35 H35         0.6244    3.5710   58.6349 H       1  ZINC001041713551    0.0900
     36 H36         0.6433    1.1021   56.5460 H       1  ZINC001041713551    0.3800
     37 H37        -1.8449    1.8278   55.7261 H       1  ZINC001041713551    0.0900
     38 H38        -2.4228    3.1508   56.8316 H       1  ZINC001041713551    0.1000
     39 H39        -2.1674    4.1276   51.3044 H       1  ZINC001041713551    0.0800
     40 H40        -1.4431    2.5525   51.7134 H       1  ZINC001041713551    0.0800
     41 H41        -3.2885    2.3390   50.0340 H       1  ZINC001041713551    0.0700
     42 H42        -3.6494    1.4677   51.5455 H       1  ZINC001041713551    0.0700
     43 H43        -4.6549    4.2484   50.7803 H       1  ZINC001041713551    0.0700
     44 H44        -5.6253    2.7558   50.8322 H       1  ZINC001041713551    0.0800
     45 H45        -5.9155    4.1304   52.8973 H       1  ZINC001041713551    0.1000
     46 H46        -5.1996    2.5394   53.2512 H       1  ZINC001041713551    0.0500
     47 H47        -0.5359    5.1146   56.7772 H       1  ZINC001041713551    0.1100
     48 H48         0.7781    4.5578   55.6504 H       1  ZINC001041713551    0.1000
@<TRIPOS>BOND
     1     1     2    1
     2     1    24    1
     3     1    25    1
     4     1    26    1
     5     2     3    1
     6     2    27    1
     7     2    28    1
     8     3     4    1
     9     3    29    1
    10     3    30    1
    11     4     5    1
    12     5     6    1
    13     5    31    1
    14     5    32    1
    15     6     7    2
    16     6     8   am
    17     8     9    1
    18     8    33    1
    19     9    10    1
    20     9    34    1
    21     9    35    1
    22    10    23    1
    23    10    11    1
    24    10    12    1
    25    11    36    1
    26    12    13    1
    27    12    37    1
    28    12    38    1
    29    13    14   am
    30    13    23    1
    31    14    15    2
    32    14    16    1
    33    16    17    1
    34    16    22    1
    35    16    18    1
    36    18    19    1
    37    18    39    1
    38    18    40    1
    39    19    20    1
    40    19    41    1
    41    19    42    1
    42    20    21    1
    43    20    43    1
    44    20    44    1
    45    21    22    1
    46    21    45    1
    47    21    46    1
    48    23    47    1
    49    23    48    1
@<TRIPOS>SUBSTRUCTURE
     1 ZINC001041713551        1 TEMP              0 ****  ****    0 ROOT


##########                                Name:    ZINC001284642199
##########                DOCK_Rotatable_Bonds:                   8
##########                         Heavy_Atoms:                  25
##########                    Molecular_Weight:             346.516
##########                DOCK_Rotatable_Bonds:                   8
##########                       Formal_Charge:         -3.8743e-07
##########                     HBond_Acceptors:                   5
##########                        HBond_Donors:                   2
##########                         Heavy_Atoms:                  25
##########                          Grid_Score:          -30.469080
##########                     Grid_vdw_energy:          -29.455988
##########                      Grid_es_energy:           -1.013092
##########           Internal_energy_repulsive:           19.776285

@<TRIPOS>MOLECULE
ZINC001284642199
 59 60 1 0 0
SMALL
USER_CHARGES


@<TRIPOS>ATOM
      1 C1         -8.5863    0.2071   61.9247 C.3     1  ZINC001284642199   -0.1100
      2 C2         -8.2563    0.6700   60.5291 C.ar    1  ZINC001284642199   -0.1900
      3 C3         -8.7246    1.8854   60.0552 C.ar    1  ZINC001284642199    0.1500
      4 N4         -8.4141    2.2592   58.8243 N.ar    1  ZINC001284642199   -0.4900
      5 C5         -7.6701    1.4918   58.0531 C.ar    1  ZINC001284642199    0.3100
      6 C6         -7.3401    1.9549   56.6574 C.3     1  ZINC001284642199    0.1300
      7 N7         -8.4344    2.7917   56.1476 N.3     1  ZINC001284642199   -0.6800
      8 C8         -9.6324    1.9853   55.8785 C.3     1  ZINC001284642199    0.0500
      9 C9         -9.9319    2.0017   54.3782 C.3     1  ZINC001284642199    0.1600
     10 H10       -10.5056    2.8953   54.1320 H       1  ZINC001284642199    0.1000
     11 N11        -8.6731    2.0076   53.6289 N.am    1  ZINC001284642199   -0.7200
     12 C12        -8.4700    2.9219   52.6598 C.2     1  ZINC001284642199    0.5200
     13 O13        -9.3288    3.7408   52.4090 O.2     1  ZINC001284642199   -0.5300
     14 C14        -7.1758    2.9269   51.8878 C.3     1  ZINC001284642199   -0.1100
     15 H15        -7.3803    3.1325   50.8370 H       1  ZINC001284642199    0.0900
     16 C16        -6.2516    4.0096   52.4487 C.3     1  ZINC001284642199   -0.1000
     17 C17        -4.9376    4.0147   51.6649 C.3     1  ZINC001284642199   -0.1100
     18 C18        -4.2608    2.6487   51.7952 C.3     1  ZINC001284642199   -0.0900
     19 H19        -4.0563    2.4432   52.8459 H       1  ZINC001284642199    0.0700
     20 C20        -2.9468    2.6538   51.0113 C.3     1  ZINC001284642199   -0.1500
     21 C21        -5.1850    1.5661   51.2343 C.3     1  ZINC001284642199   -0.1100
     22 C22        -6.4989    1.5610   52.0180 C.3     1  ZINC001284642199   -0.1100
     23 C23       -10.7411    0.7577   54.0060 C.3     1  ZINC001284642199   -0.0800
     24 C24        -9.8227   -0.4660   54.0028 C.3     1  ZINC001284642199   -0.1400
     25 C25       -11.8604    0.5526   55.0287 C.3     1  ZINC001284642199   -0.1400
     26 C26       -11.3494    0.9425   52.6143 C.3     1  ZINC001284642199   -0.1300
     27 N27        -7.2115    0.3280   58.4680 N.ar    1  ZINC001284642199   -0.5100
     28 C28        -7.4769   -0.1091   59.6886 C.ar    1  ZINC001284642199    0.1500
     29 H29        -9.5119   -0.3685   61.9072 H       1  ZINC001284642199    0.0800
     30 H30        -7.7768   -0.4182   62.3010 H       1  ZINC001284642199    0.0700
     31 H31        -8.7092    1.0729   62.5752 H       1  ZINC001284642199    0.0700
     32 H32        -9.3349    2.5187   60.6819 H       1  ZINC001284642199    0.1700
     33 H33        -7.2121    1.0889   56.0080 H       1  ZINC001284642199    0.1000
     34 H34        -6.4174    2.5349   56.6758 H       1  ZINC001284642199    0.0600
     35 H35        -8.1479    3.2995   55.3240 H       1  ZINC001284642199    0.3400
     36 H36       -10.4802    2.4012   56.4229 H       1  ZINC001284642199    0.0900
     37 H37        -9.4602    0.9591   56.2033 H       1  ZINC001284642199    0.0400
     38 H38        -7.9857    1.3535   53.8303 H       1  ZINC001284642199    0.3900
     39 H39        -6.0471    3.8041   53.4994 H       1  ZINC001284642199    0.0700
     40 H40        -6.7337    4.9828   52.3560 H       1  ZINC001284642199    0.0700
     41 H41        -4.2792    4.7860   52.0645 H       1  ZINC001284642199    0.0700
     42 H42        -5.1420    4.2202   50.6142 H       1  ZINC001284642199    0.0600
     43 H43        -2.2883    3.4250   51.4110 H       1  ZINC001284642199    0.0500
     44 H44        -2.4646    1.6806   51.1041 H       1  ZINC001284642199    0.0500
     45 H45        -3.1513    2.8592   49.9606 H       1  ZINC001284642199    0.0500
     46 H46        -5.3895    1.7716   50.1835 H       1  ZINC001284642199    0.0600
     47 H47        -4.7029    0.5929   51.3269 H       1  ZINC001284642199    0.0700
     48 H48        -6.2944    1.3555   53.0688 H       1  ZINC001284642199    0.0700
     49 H49        -7.1574    0.7897   51.6184 H       1  ZINC001284642199    0.0600
     50 H50        -9.3893   -0.5976   54.9942 H       1  ZINC001284642199    0.0600
     51 H51       -10.3991   -1.3523   53.7375 H       1  ZINC001284642199    0.0600
     52 H52        -9.0253   -0.3198   53.2741 H       1  ZINC001284642199    0.0500
     53 H53       -12.5148    1.4242   55.0310 H       1  ZINC001284642199    0.0600
     54 H54       -12.4369   -0.3338   54.7636 H       1  ZINC001284642199    0.0600
     55 H55       -11.4271    0.4208   56.0202 H       1  ZINC001284642199    0.0600
     56 H56       -10.5520    1.0886   51.8858 H       1  ZINC001284642199    0.0500
     57 H57       -11.9259    0.0562   52.3492 H       1  ZINC001284642199    0.0500
     58 H58       -12.0037    1.8142   52.6167 H       1  ZINC001284642199    0.0600
     59 H59        -7.0949   -1.0621   60.0237 H       1  ZINC001284642199    0.1700
@<TRIPOS>BOND
     1     1     2    1
     2     1    29    1
     3     1    30    1
     4     1    31    1
     5     2    28   ar
     6     2     3   ar
     7     3     4   ar
     8     3    32    1
     9     4     5   ar
    10     5     6    1
    11     5    27   ar
    12     6     7    1
    13     6    33    1
    14     6    34    1
    15     7     8    1
    16     7    35    1
    17     8     9    1
    18     8    36    1
    19     8    37    1
    20     9    10    1
    21     9    11    1
    22     9    23    1
    23    11    12   am
    24    11    38    1
    25    12    13    2
    26    12    14    1
    27    14    15    1
    28    14    22    1
    29    14    16    1
    30    16    17    1
    31    16    39    1
    32    16    40    1
    33    17    18    1
    34    17    41    1
    35    17    42    1
    36    18    19    1
    37    18    20    1
    38    18    21    1
    39    20    43    1
    40    20    44    1
    41    20    45    1
    42    21    22    1
    43    21    46    1
    44    21    47    1
    45    22    48    1
    46    22    49    1
    47    23    24    1
    48    23    25    1
    49    23    26    1
    50    24    50    1
    51    24    51    1
    52    24    52    1
    53    25    53    1
    54    25    54    1
    55    25    55    1
    56    26    56    1
    57    26    57    1
    58    26    58    1
    59    27    28   ar
    60    28    59    1
@<TRIPOS>SUBSTRUCTURE
     1 ZINC001284642199        1 TEMP              0 ****  ****    0 ROOT


##########                                Name:    ZINC000822449555
##########                DOCK_Rotatable_Bonds:                   5
##########                         Heavy_Atoms:                  27
##########                    Molecular_Weight:             366.383
##########                DOCK_Rotatable_Bonds:                   5
##########                       Formal_Charge:          -0.0100009
##########                     HBond_Acceptors:                  10
##########                        HBond_Donors:                   2
##########                         Heavy_Atoms:                  27
##########                          Grid_Score:          -30.466200
##########                     Grid_vdw_energy:          -30.172924
##########                      Grid_es_energy:           -0.293277
##########           Internal_energy_repulsive:            7.364990

@<TRIPOS>MOLECULE
ZINC000822449555
 45 48 1 0 0
SMALL
USER_CHARGES


@<TRIPOS>ATOM
      1 C1        -10.2305   -0.2498   57.6784 C.3     1  ZINC000822449555   -0.1100
      2 C2        -11.5466   -0.4107   56.9619 C.ar    1  ZINC000822449555    0.1400
      3 N3        -12.5906   -0.8849   57.6142 N.ar    1  ZINC000822449555   -0.5000
      4 C4        -13.7656   -1.0431   57.0254 C.ar    1  ZINC000822449555    0.3000
      5 N5        -14.8388   -1.5473   57.7550 N.3     1  ZINC000822449555   -0.4700
      6 C6        -15.2565   -0.6011   58.7998 C.3     1  ZINC000822449555    0.0200
      7 C7        -16.4731   -1.1673   59.5367 C.3     1  ZINC000822449555    0.0600
      8 O8        -16.1452   -2.4530   60.0703 O.3     1  ZINC000822449555   -0.3800
      9 C9        -15.7347   -3.3998   59.0800 C.3     1  ZINC000822449555    0.0600
     10 C10       -14.5106   -2.8562   58.3385 C.3     1  ZINC000822449555    0.0300
     11 C11       -13.9402   -0.7108   55.6863 C.ar    1  ZINC000822449555   -0.1700
     12 C12       -12.8679   -0.2107   54.9704 C.ar    1  ZINC000822449555   -0.0500
     13 C13       -11.6477   -0.0533   55.6257 C.ar    1  ZINC000822449555    0.0600
     14 N14       -10.5342    0.4498   54.9400 N.am    1  ZINC000822449555   -0.6600
     15 C15        -9.7359   -0.3857   54.2464 C.2     1  ZINC000822449555    0.5700
     16 O16        -9.9818   -1.5761   54.2159 O.2     1  ZINC000822449555   -0.5100
     17 C17        -8.5622    0.1446   53.5235 C.ar    1  ZINC000822449555   -0.1800
     18 C18        -7.9442   -0.6130   52.5195 C.ar    1  ZINC000822449555   -0.0100
     19 C19        -6.8496   -0.0753   51.8713 C.ar    1  ZINC000822449555   -0.1300
     20 C20        -6.3991    1.1933   52.2341 C.ar    1  ZINC000822449555    0.2300
     21 C21        -5.2243    1.7781   51.5429 C.2     1  ZINC000822449555    0.2100
     22 N22        -4.5790    1.2641   50.5141 N.2     1  ZINC000822449555   -0.2500
     23 N23        -3.6220    2.0703   50.2062 N.pl3   1  ZINC000822449555   -0.2200
     24 N24        -3.6400    3.0784   51.0067 N.2     1  ZINC000822449555   -0.0400
     25 N25        -4.6150    2.9355   51.8390 N.2     1  ZINC000822449555   -0.2500
     26 N26        -7.0082    1.8849   53.1898 N.ar    1  ZINC000822449555   -0.4500
     27 C27        -8.0562    1.4107   53.8270 C.ar    1  ZINC000822449555    0.1400
     28 H28       -10.1798    0.7426   58.1265 H       1  ZINC000822449555    0.0800
     29 H29       -10.1473   -1.0057   58.4594 H       1  ZINC000822449555    0.0800
     30 H30        -9.4128   -0.3698   56.9678 H       1  ZINC000822449555    0.0700
     31 H31       -14.4392   -0.4544   59.5059 H       1  ZINC000822449555    0.0600
     32 H32       -15.5193    0.3529   58.3428 H       1  ZINC000822449555    0.1000
     33 H33       -16.7513   -0.4962   60.3492 H       1  ZINC000822449555    0.1100
     34 H34       -17.3072   -1.2637   58.8415 H       1  ZINC000822449555    0.0600
     35 H35       -15.4789   -4.3431   59.5624 H       1  ZINC000822449555    0.1000
     36 H36       -16.5473   -3.5610   58.3717 H       1  ZINC000822449555    0.0600
     37 H37       -14.2287   -3.5481   57.5450 H       1  ZINC000822449555    0.1000
     38 H38       -13.6813   -2.7455   59.0373 H       1  ZINC000822449555    0.0600
     39 H39       -14.9012   -0.8420   55.2112 H       1  ZINC000822449555    0.1400
     40 H40       -12.9743    0.0554   53.9291 H       1  ZINC000822449555    0.1500
     41 H41       -10.3380    1.3995   54.9643 H       1  ZINC000822449555    0.4100
     42 H42        -8.3145   -1.5936   52.2593 H       1  ZINC000822449555    0.1600
     43 H43        -6.3483   -0.6311   51.0927 H       1  ZINC000822449555    0.1600
     44 H44        -2.9876    1.9384   49.4846 H       1  ZINC000822449555    0.4800
     45 H45        -8.5255    2.0028   54.5987 H       1  ZINC000822449555    0.1700
@<TRIPOS>BOND
     1     1     2    1
     2     1    28    1
     3     1    29    1
     4     1    30    1
     5     2    13   ar
     6     2     3   ar
     7     3     4   ar
     8     4     5    1
     9     4    11   ar
    10     5    10    1
    11     5     6    1
    12     6     7    1
    13     6    31    1
    14     6    32    1
    15     7     8    1
    16     7    33    1
    17     7    34    1
    18     8     9    1
    19     9    10    1
    20     9    35    1
    21     9    36    1
    22    10    37    1
    23    10    38    1
    24    11    12   ar
    25    11    39    1
    26    12    13   ar
    27    12    40    1
    28    13    14    1
    29    14    15   am
    30    14    41    1
    31    15    16    2
    32    15    17    1
    33    17    27   ar
    34    17    18   ar
    35    18    19   ar
    36    18    42    1
    37    19    20   ar
    38    19    43    1
    39    20    21    1
    40    20    26   ar
    41    21    25    1
    42    21    22    2
    43    22    23    1
    44    23    24    1
    45    23    44    1
    46    24    25    2
    47    26    27   ar
    48    27    45    1
@<TRIPOS>SUBSTRUCTURE
     1 ZINC000822449555        1 TEMP              0 ****  ****    0 ROOT


##########                                Name:    ZINC001207290212
##########                DOCK_Rotatable_Bonds:                   8
##########                         Heavy_Atoms:                  23
##########                    Molecular_Weight:             344.435
##########                DOCK_Rotatable_Bonds:                   8
##########                       Formal_Charge:               -0.03
##########                     HBond_Acceptors:                   9
##########                        HBond_Donors:                   2
##########                         Heavy_Atoms:                  23
##########                          Grid_Score:          -30.461552
##########                     Grid_vdw_energy:          -29.964542
##########                      Grid_es_energy:           -0.497009
##########           Internal_energy_repulsive:            4.702947

@<TRIPOS>MOLECULE
ZINC001207290212
 47 48 1 0 0
SMALL
USER_CHARGES


@<TRIPOS>ATOM
      1 C1         -9.3783    0.2990   59.7941 C.3     1  ZINC001207290212   -0.1500
      2 C2         -8.9710    0.1010   58.3326 C.3     1  ZINC001207290212   -0.6300
      3 S3         -8.0306    1.5450   57.7660 S.o2    1  ZINC001207290212    2.6100
      4 O4         -8.8715    2.6877   57.6858 O.2     1  ZINC001207290212   -0.9500
      5 O5         -6.7704    1.6073   58.4199 O.2     1  ZINC001207290212   -0.9500
      6 N6         -7.6562    1.2019   56.1898 N.am    1  ZINC001207290212   -1.1100
      7 C7         -8.7264    0.9746   55.2156 C.3     1  ZINC001207290212    0.0900
      8 C8         -8.2426    1.3549   53.8399 C.2     1  ZINC001207290212    0.5100
      9 O9         -8.7763    0.8843   52.8578 O.2     1  ZINC001207290212   -0.5300
     10 N10        -7.2168    2.2179   53.7011 N.am    1  ZINC001207290212   -0.7200
     11 C11        -6.7476    2.5889   52.3638 C.3     1  ZINC001207290212    0.1400
     12 H12        -7.5870    2.6433   51.6706 H       1  ZINC001207290212    0.1000
     13 C13        -5.7051    1.5726   51.8620 C.3     1  ZINC001207290212    0.0200
     14 N14        -4.4372    2.3098   51.6713 N.3     1  ZINC001207290212   -0.5100
     15 C15        -3.6802    1.7699   50.5341 C.3     1  ZINC001207290212    0.1300
     16 C16        -2.2422    2.2094   50.6338 C.2     1  ZINC001207290212    0.0000
     17 C17        -1.2886    2.0177   49.7074 C.2     1  ZINC001207290212   -0.0700
     18 O18        -0.1532    2.5608   50.1887 O.3     1  ZINC001207290212   -0.2000
     19 C19        -0.4256    3.0744   51.3957 C.2     1  ZINC001207290212    0.1900
     20 C20         0.5595    3.7792   52.2922 C.3     1  ZINC001207290212   -0.0600
     21 N21        -1.6837    2.8695   51.6638 N.2     1  ZINC001207290212   -0.4700
     22 C22        -4.8232    3.7238   51.4307 C.3     1  ZINC001207290212    0.0400
     23 C23        -6.0035    3.9432   52.4128 C.3     1  ZINC001207290212   -0.1000
     24 H24        -5.6357    4.1438   53.4191 H       1  ZINC001207290212    0.0900
     25 C25        -6.9045    5.0818   51.9306 C.3     1  ZINC001207290212   -0.1400
     26 H26        -8.4848    0.4143   60.4078 H       1  ZINC001207290212    0.0700
     27 H27        -9.9967    1.1923   59.8811 H       1  ZINC001207290212    0.0700
     28 H28        -9.9434   -0.5687   60.1345 H       1  ZINC001207290212    0.0800
     29 H29        -8.3526   -0.7923   58.2456 H       1  ZINC001207290212    0.1300
     30 H30        -9.8644   -0.0144   57.7189 H       1  ZINC001207290212    0.1300
     31 H31        -6.7283    1.1514   55.9116 H       1  ZINC001207290212    0.4300
     32 H32        -9.0074   -0.0786   55.2236 H       1  ZINC001207290212    0.1000
     33 H33        -9.5917    1.5835   55.4776 H       1  ZINC001207290212    0.1100
     34 H34        -6.7891    2.5933   54.4867 H       1  ZINC001207290212    0.4100
     35 H35        -5.5686    0.7844   52.6024 H       1  ZINC001207290212    0.0800
     36 H36        -6.0311    1.1433   50.9146 H       1  ZINC001207290212    0.0500
     37 H37        -3.7292    0.6811   50.5491 H       1  ZINC001207290212    0.0600
     38 H38        -4.1096    2.1401   49.6031 H       1  ZINC001207290212    0.1000
     39 H39        -1.4091    1.5213   48.7558 H       1  ZINC001207290212    0.2100
     40 H40         1.5354    3.8086   51.8077 H       1  ZINC001207290212    0.0900
     41 H41         0.2164    4.7967   52.4801 H       1  ZINC001207290212    0.1000
     42 H42         0.6391    3.2424   53.2376 H       1  ZINC001207290212    0.1000
     43 H43        -3.9964    4.3938   51.6666 H       1  ZINC001207290212    0.0900
     44 H44        -5.1507    3.8632   50.4004 H       1  ZINC001207290212    0.0500
     45 H45        -7.2852    4.8478   50.9364 H       1  ZINC001207290212    0.0600
     46 H46        -7.7398    5.2012   52.6207 H       1  ZINC001207290212    0.0600
     47 H47        -6.3305    6.0076   51.8914 H       1  ZINC001207290212    0.0600
@<TRIPOS>BOND
     1     1     2    1
     2     1    26    1
     3     1    27    1
     4     1    28    1
     5     2     3    1
     6     2    29    1
     7     2    30    1
     8     3     4    2
     9     3     5    2
    10     3     6   am
    11     6     7    1
    12     6    31    1
    13     7     8    1
    14     7    32    1
    15     7    33    1
    16     8     9    2
    17     8    10   am
    18    10    11    1
    19    10    34    1
    20    11    12    1
    21    11    23    1
    22    11    13    1
    23    13    14    1
    24    13    35    1
    25    13    36    1
    26    14    15    1
    27    14    22    1
    28    15    16    1
    29    15    37    1
    30    15    38    1
    31    16    21    1
    32    16    17    2
    33    17    18    1
    34    17    39    1
    35    18    19    1
    36    19    20    1
    37    19    21    2
    38    20    40    1
    39    20    41    1
    40    20    42    1
    41    22    23    1
    42    22    43    1
    43    22    44    1
    44    23    24    1
    45    23    25    1
    46    25    45    1
    47    25    46    1
    48    25    47    1
@<TRIPOS>SUBSTRUCTURE
     1 ZINC001207290212        1 TEMP              0 ****  ****    0 ROOT


##########                                Name:    ZINC001000186632
##########                DOCK_Rotatable_Bonds:                   7
##########                         Heavy_Atoms:                  23
##########                    Molecular_Weight:             342.379
##########                DOCK_Rotatable_Bonds:                   7
##########                       Formal_Charge:          -0.0100001
##########                     HBond_Acceptors:                  11
##########                        HBond_Donors:                   2
##########                         Heavy_Atoms:                  23
##########                          Grid_Score:          -30.450979
##########                     Grid_vdw_energy:          -29.697714
##########                      Grid_es_energy:           -0.753265
##########           Internal_energy_repulsive:            4.596993

@<TRIPOS>MOLECULE
ZINC001000186632
 41 43 1 0 0
SMALL
USER_CHARGES


@<TRIPOS>ATOM
      1 O1         -6.8074    3.6235   51.4663 O.2     1  ZINC001000186632   -0.5200
      2 C2         -6.2742    2.7250   52.0821 C.2     1  ZINC001000186632    0.5300
      3 C3         -5.4721    1.6811   51.3485 C.3     1  ZINC001000186632   -0.0500
      4 C4         -4.0342    2.1233   51.2593 C.2     1  ZINC001000186632    0.2400
      5 N5         -3.2052    1.8212   50.2949 N.2     1  ZINC001000186632   -0.3000
      6 N6         -1.9805    2.4345   50.6057 N.pl3   1  ZINC001000186632   -0.4800
      7 C7         -2.1657    3.0813   51.7694 C.2     1  ZINC001000186632    0.2700
      8 N8         -3.4035    2.8904   52.1475 N.2     1  ZINC001000186632   -0.5400
      9 N9         -6.3941    2.6632   53.4231 N.am    1  ZINC001000186632   -0.7100
     10 C10        -7.1737    3.6779   54.1362 C.3     1  ZINC001000186632    0.1100
     11 C11        -8.3933    3.1098   54.8846 C.3     1  ZINC001000186632    0.1000
     12 N12        -7.4879    2.9601   56.0405 N.am    1  ZINC001000186632   -0.6500
     13 C13        -7.4696    2.1659   57.1293 C.2     1  ZINC001000186632    0.5100
     14 O14        -6.5713    2.2662   57.9381 O.2     1  ZINC001000186632   -0.5100
     15 C15        -8.5653    1.1534   57.3419 C.3     1  ZINC001000186632    0.1500
     16 N16        -8.7351    0.9117   58.7768 N.am    1  ZINC001000186632   -0.9800
     17 C17        -9.2110    1.8831   59.7731 C.3     1  ZINC001000186632    0.0800
     18 C18        -9.9255    1.1526   60.9261 C.3     1  ZINC001000186632   -0.1300
     19 C19        -8.9887   -0.0436   61.2622 C.3     1  ZINC001000186632   -0.6000
     20 S20        -8.4309   -0.5200   59.5811 S.o2    1  ZINC001000186632    2.5700
     21 O21        -9.3086   -1.4736   58.9982 O.2     1  ZINC001000186632   -0.9400
     22 O22        -7.0191   -0.6734   59.5311 O.2     1  ZINC001000186632   -0.9600
     23 C23        -6.6107    4.0291   55.5253 C.3     1  ZINC001000186632    0.0900
     24 H24        -5.5284    0.7349   51.8868 H       1  ZINC001000186632    0.1300
     25 H25        -5.8756    1.5523   50.3442 H       1  ZINC001000186632    0.1200
     26 H26        -1.1633    2.3982   50.0843 H       1  ZINC001000186632    0.4400
     27 H27        -1.4231    3.6604   52.2983 H       1  ZINC001000186632    0.2200
     28 H28        -5.9642    1.9468   53.9160 H       1  ZINC001000186632    0.4100
     29 H29        -7.4007    4.5491   53.5216 H       1  ZINC001000186632    0.1200
     30 H30        -9.1900    3.8368   55.0419 H       1  ZINC001000186632    0.1000
     31 H31        -8.7532    2.1627   54.4830 H       1  ZINC001000186632    0.0900
     32 H32        -9.4976    1.5339   56.9248 H       1  ZINC001000186632    0.1100
     33 H33        -8.2991    0.2203   56.8453 H       1  ZINC001000186632    0.1100
     34 H34        -8.3618    2.4397   60.1694 H       1  ZINC001000186632    0.0800
     35 H35        -9.9060    2.5760   59.2988 H       1  ZINC001000186632    0.0900
     36 H36       -10.0279    1.8106   61.7889 H       1  ZINC001000186632    0.1100
     37 H37       -10.9020    0.7925   60.6022 H       1  ZINC001000186632    0.1000
     38 H38        -8.1512    0.2748   61.8829 H       1  ZINC001000186632    0.1400
     39 H39        -9.5411   -0.8551   61.7358 H       1  ZINC001000186632    0.1400
     40 H40        -5.5474    3.8160   55.6351 H       1  ZINC001000186632    0.0900
     41 H41        -6.8838    5.0263   55.8708 H       1  ZINC001000186632    0.1100
@<TRIPOS>BOND
     1     1     2    2
     2     2     3    1
     3     2     9   am
     4     3     4    1
     5     3    24    1
     6     3    25    1
     7     4     8    1
     8     4     5    2
     9     5     6    1
    10     6     7    1
    11     6    26    1
    12     7     8    2
    13     7    27    1
    14     9    10    1
    15     9    28    1
    16    10    23    1
    17    10    11    1
    18    10    29    1
    19    11    12    1
    20    11    30    1
    21    11    31    1
    22    12    13   am
    23    12    23    1
    24    13    14    2
    25    13    15    1
    26    15    16    1
    27    15    32    1
    28    15    33    1
    29    16    20   am
    30    16    17    1
    31    17    18    1
    32    17    34    1
    33    17    35    1
    34    18    19    1
    35    18    36    1
    36    18    37    1
    37    19    20    1
    38    19    38    1
    39    19    39    1
    40    20    21    2
    41    20    22    2
    42    23    40    1
    43    23    41    1
@<TRIPOS>SUBSTRUCTURE
     1 ZINC001000186632        1 TEMP              0 ****  ****    0 ROOT


##########                                Name:    ZINC000477589488
##########                DOCK_Rotatable_Bonds:                   6
##########                         Heavy_Atoms:                  32
##########                    Molecular_Weight:             423.517
##########                DOCK_Rotatable_Bonds:                   6
##########                       Formal_Charge:        -8.19564e-07
##########                     HBond_Acceptors:                   6
##########                        HBond_Donors:                   1
##########                         Heavy_Atoms:                  32
##########                          Grid_Score:          -30.448641
##########                     Grid_vdw_energy:          -30.334097
##########                      Grid_es_energy:           -0.114544
##########           Internal_energy_repulsive:           20.027586

@<TRIPOS>MOLECULE
ZINC000477589488
 57 61 1 0 0
SMALL
USER_CHARGES


@<TRIPOS>ATOM
      1 O1         -9.6344    3.7445   55.8662 O.2     1  ZINC000477589488   -0.5800
      2 C2         -8.7957    2.9135   56.1571 C.2     1  ZINC000477589488    0.7100
      3 N3         -8.2638    2.1288   55.1991 N.am    1  ZINC000477589488   -0.7400
      4 C4         -8.7006    2.2729   53.8081 C.3     1  ZINC000477589488    0.2500
      5 H5         -8.7748    3.3313   53.5584 H       1  ZINC000477589488    0.1100
      6 C6        -10.0478    1.6202   53.6344 C.ar    1  ZINC000477589488   -0.0900
      7 C7        -10.3917    0.5282   54.4092 C.ar    1  ZINC000477589488   -0.1000
      8 C8        -11.6274   -0.0705   54.2499 C.ar    1  ZINC000477589488   -0.1200
      9 C9        -12.5194    0.4229   53.3161 C.ar    1  ZINC000477589488   -0.1200
     10 C10       -12.1758    1.5154   52.5420 C.ar    1  ZINC000477589488   -0.1200
     11 C11       -10.9417    2.1169   52.7043 C.ar    1  ZINC000477589488   -0.1000
     12 C12        -7.7002    1.6106   52.8962 C.ar    1  ZINC000477589488   -0.0700
     13 C13        -6.5542    2.3086   52.4794 C.ar    1  ZINC000477589488   -0.0400
     14 C14        -6.3114    3.6284   52.8967 C.ar    1  ZINC000477589488   -0.1100
     15 C15        -5.1904    4.2731   52.4731 C.ar    1  ZINC000477589488   -0.1100
     16 C16        -4.2765    3.6444   51.6290 C.ar    1  ZINC000477589488   -0.1100
     17 C17        -4.4787    2.3674   51.2041 C.ar    1  ZINC000477589488   -0.1100
     18 C18        -5.6247    1.6689   51.6214 C.ar    1  ZINC000477589488   -0.0500
     19 C19        -5.8673    0.3494   51.2043 C.ar    1  ZINC000477589488   -0.1000
     20 C20        -6.9880   -0.2960   51.6292 C.ar    1  ZINC000477589488   -0.1100
     21 C21        -7.8993    0.3310   52.4765 C.ar    1  ZINC000477589488   -0.1100
     22 N22        -8.3939    2.7810   57.4367 N.am    1  ZINC000477589488   -0.6300
     23 C23        -8.9656    3.6229   58.4986 C.3     1  ZINC000477589488    0.1300
     24 C24        -9.4373    2.7146   59.6391 C.3     1  ZINC000477589488    0.0500
     25 N25        -8.3283    1.8491   60.0620 N.3     1  ZINC000477589488   -0.4700
     26 C26        -8.6668    1.1258   61.2003 C.ar    1  ZINC000477589488    0.2500
     27 C27        -8.1920    1.5230   62.4497 C.ar    1  ZINC000477589488   -0.1300
     28 C28        -8.5583    0.7682   63.5530 C.ar    1  ZINC000477589488   -0.0900
     29 C29        -9.3741   -0.3353   63.3468 C.ar    1  ZINC000477589488    0.0200
     30 N30        -9.7774   -0.6388   62.1290 N.ar    1  ZINC000477589488   -0.2200
     31 N31        -9.4467    0.0587   61.1036 N.ar    1  ZINC000477589488   -0.2800
     32 C32        -7.9064    0.9544   58.9759 C.3     1  ZINC000477589488    0.0400
     33 C33        -7.3764    1.7864   57.8092 C.3     1  ZINC000477589488    0.1200
     34 H34        -7.5918    1.4687   55.4304 H       1  ZINC000477589488    0.3900
     35 H35        -9.6949    0.1427   55.1387 H       1  ZINC000477589488    0.1100
     36 H36       -11.8959   -0.9241   54.8547 H       1  ZINC000477589488    0.1200
     37 H37       -13.4845   -0.0453   53.1912 H       1  ZINC000477589488    0.1200
     38 H38       -12.8724    1.9007   51.8122 H       1  ZINC000477589488    0.1200
     39 H39       -10.6732    2.9704   52.0995 H       1  ZINC000477589488    0.1200
     40 H40        -7.0109    4.1286   53.5502 H       1  ZINC000477589488    0.1300
     41 H41        -5.0061    5.2873   52.7953 H       1  ZINC000477589488    0.1300
     42 H42        -3.3949    4.1787   51.3071 H       1  ZINC000477589488    0.1300
     43 H43        -3.7623    1.8933   50.5496 H       1  ZINC000477589488    0.1300
     44 H44        -5.1685   -0.1501   50.5496 H       1  ZINC000477589488    0.1300
     45 H45        -7.1723   -1.3101   51.3067 H       1  ZINC000477589488    0.1300
     46 H46        -8.7804   -0.2036   52.7992 H       1  ZINC000477589488    0.1200
     47 H47        -8.2059    4.3112   58.8689 H       1  ZINC000477589488    0.0800
     48 H48        -9.8121    4.1851   58.1042 H       1  ZINC000477589488    0.1100
     49 H49        -9.7625    3.3263   60.4805 H       1  ZINC000477589488    0.1000
     50 H50       -10.2679    2.0989   59.2938 H       1  ZINC000477589488    0.0600
     51 H51        -7.5584    2.3913   62.5544 H       1  ZINC000477589488    0.1500
     52 H52        -8.2184    1.0308   64.5439 H       1  ZINC000477589488    0.1500
     53 H53        -9.6783   -0.9458   64.1841 H       1  ZINC000477589488    0.1700
     54 H54        -7.1214    0.2897   59.3365 H       1  ZINC000477589488    0.1000
     55 H55        -8.7583    0.3632   58.6400 H       1  ZINC000477589488    0.0600
     56 H56        -7.1698    1.1356   56.9596 H       1  ZINC000477589488    0.0800
     57 H57        -6.4638    2.3003   58.1109 H       1  ZINC000477589488    0.0900
@<TRIPOS>BOND
     1     1     2    2
     2     2     3   am
     3     2    22   am
     4     3     4    1
     5     3    34    1
     6     4     5    1
     7     4     6    1
     8     4    12    1
     9     6    11   ar
    10     6     7   ar
    11     7     8   ar
    12     7    35    1
    13     8     9   ar
    14     8    36    1
    15     9    10   ar
    16     9    37    1
    17    10    11   ar
    18    10    38    1
    19    11    39    1
    20    12    21   ar
    21    12    13   ar
    22    13    18   ar
    23    13    14   ar
    24    14    15   ar
    25    14    40    1
    26    15    16   ar
    27    15    41    1
    28    16    17   ar
    29    16    42    1
    30    17    18   ar
    31    17    43    1
    32    18    19   ar
    33    19    20   ar
    34    19    44    1
    35    20    21   ar
    36    20    45    1
    37    21    46    1
    38    22    33    1
    39    22    23    1
    40    23    24    1
    41    23    47    1
    42    23    48    1
    43    24    25    1
    44    24    49    1
    45    24    50    1
    46    25    26    1
    47    25    32    1
    48    26    31   ar
    49    26    27   ar
    50    27    28   ar
    51    27    51    1
    52    28    29   ar
    53    28    52    1
    54    29    30   ar
    55    29    53    1
    56    30    31   ar
    57    32    33    1
    58    32    54    1
    59    32    55    1
    60    33    56    1
    61    33    57    1
@<TRIPOS>SUBSTRUCTURE
     1 ZINC000477589488        1 TEMP              0 ****  ****    0 ROOT


##########                                Name:    ZINC000194290865
##########                DOCK_Rotatable_Bonds:                   7
##########                         Heavy_Atoms:                  28
##########                    Molecular_Weight:             387.479
##########                DOCK_Rotatable_Bonds:                   7
##########                       Formal_Charge:          -0.0400003
##########                     HBond_Acceptors:                   7
##########                        HBond_Donors:                   0
##########                         Heavy_Atoms:                  28
##########                          Grid_Score:          -30.419840
##########                     Grid_vdw_energy:          -30.133833
##########                      Grid_es_energy:           -0.286006
##########           Internal_energy_repulsive:           43.738411

@<TRIPOS>MOLECULE
ZINC000194290865
 57 59 1 0 0
SMALL
USER_CHARGES


@<TRIPOS>ATOM
      1 C1         -0.3016    2.0170   60.9971 C.3     1  ZINC000194290865   -0.1500
      2 C2         -0.9009    2.3097   59.6201 C.3     1  ZINC000194290865    0.0600
      3 O3         -1.1824    3.7296   59.5067 O.3     1  ZINC000194290865   -0.3600
      4 C4         -1.6652    4.1632   58.3316 C.2     1  ZINC000194290865    0.4700
      5 O5         -2.7825    4.6190   58.2687 O.2     1  ZINC000194290865   -0.4900
      6 C6         -0.8138    4.0815   57.0908 C.3     1  ZINC000194290865   -0.0600
      7 C7          0.6539    4.3405   57.4364 C.3     1  ZINC000194290865   -0.0700
      8 C8          1.4838    4.3655   56.1512 C.3     1  ZINC000194290865   -0.1700
      9 C9          0.7797    5.6874   58.1510 C.3     1  ZINC000194290865   -0.1600
     10 C10        -0.9739    2.6978   56.4198 C.3     1  ZINC000194290865   -0.1200
     11 C11        -2.0315    2.9687   55.3203 C.3     1  ZINC000194290865    0.0900
     12 N12        -1.6817    4.3252   54.8394 N.am    1  ZINC000194290865   -0.6100
     13 C13        -1.7057    4.7664   53.5661 C.2     1  ZINC000194290865    0.5800
     14 O14        -1.3911    5.9129   53.3142 O.2     1  ZINC000194290865   -0.5000
     15 C15        -2.1155    3.8545   52.4746 C.ar    1  ZINC000194290865    0.0100
     16 C16        -1.1645    3.2891   51.6035 C.ar    1  ZINC000194290865   -0.2200
     17 C17        -1.5962    2.4280   50.5799 C.ar    1  ZINC000194290865    0.3000
     18 N18        -2.8847    2.1558   50.4420 N.ar    1  ZINC000194290865   -0.4700
     19 C19        -3.7958    2.6693   51.2408 C.ar    1  ZINC000194290865    0.2100
     20 C20        -5.2447    2.3152   51.0257 C.3     1  ZINC000194290865   -0.1100
     21 C21        -3.4558    3.5222   52.2783 C.ar    1  ZINC000194290865   -0.1800
     22 O22        -0.4949    2.0381   49.9066 O.3     1  ZINC000194290865   -0.0800
     23 N23         0.6465    2.6386   50.4845 N.2     1  ZINC000194290865   -0.2600
     24 C24         0.2902    3.3826   51.4869 C.2     1  ZINC000194290865    0.1600
     25 C25         1.2064    4.1931   52.3671 C.3     1  ZINC000194290865   -0.0400
     26 C26         2.4520    3.3703   52.7016 C.3     1  ZINC000194290865   -0.1500
     27 C27         1.6205    5.4702   51.6333 C.3     1  ZINC000194290865   -0.1400
     28 C28        -1.3027    5.0948   56.0391 C.3     1  ZINC000194290865    0.1200
     29 H29         0.6229    2.5816   61.1184 H       1  ZINC000194290865    0.0700
     30 H30        -1.0106    2.3099   61.7715 H       1  ZINC000194290865    0.0700
     31 H31        -0.0903    0.9511   61.0822 H       1  ZINC000194290865    0.0800
     32 H32        -0.1919    2.0168   58.8457 H       1  ZINC000194290865    0.0700
     33 H33        -1.8254    1.7452   59.4987 H       1  ZINC000194290865    0.0700
     34 H34         1.0188    3.5474   58.0891 H       1  ZINC000194290865    0.0900
     35 H35         1.3942    3.4059   55.6421 H       1  ZINC000194290865    0.0500
     36 H36         1.1187    5.1586   55.4985 H       1  ZINC000194290865    0.0800
     37 H37         2.5294    4.5500   56.3974 H       1  ZINC000194290865    0.0600
     38 H38         0.1885    5.6696   59.0665 H       1  ZINC000194290865    0.0500
     39 H39         1.8253    5.8720   58.3972 H       1  ZINC000194290865    0.0600
     40 H40         0.4146    6.4805   57.4983 H       1  ZINC000194290865    0.0800
     41 H41        -0.0324    2.3718   55.9778 H       1  ZINC000194290865    0.0900
     42 H42        -1.3409    1.9620   57.1354 H       1  ZINC000194290865    0.0900
     43 H43        -1.9435    2.2402   54.5142 H       1  ZINC000194290865    0.0900
     44 H44        -3.0365    2.9574   55.7421 H       1  ZINC000194290865    0.0900
     45 H45        -5.4917    1.4267   51.6068 H       1  ZINC000194290865    0.0900
     46 H46        -5.8733    3.1458   51.3469 H       1  ZINC000194290865    0.0900
     47 H47        -5.4172    2.1169   49.9679 H       1  ZINC000194290865    0.0900
     48 H48        -4.2203    3.9318   52.9219 H       1  ZINC000194290865    0.1600
     49 H49         0.6863    4.4559   53.2884 H       1  ZINC000194290865    0.1100
     50 H50         2.9721    3.1075   51.7803 H       1  ZINC000194290865    0.0700
     51 H51         3.1147    3.9565   53.3383 H       1  ZINC000194290865    0.0700
     52 H52         2.1570    2.4605   53.2244 H       1  ZINC000194290865    0.0600
     53 H53         0.7330    6.0565   51.3952 H       1  ZINC000194290865    0.0600
     54 H54         2.2831    6.0564   52.2701 H       1  ZINC000194290865    0.0700
     55 H55         2.1405    5.2076   50.7121 H       1  ZINC000194290865    0.0600
     56 H56        -2.1675    5.6376   56.4204 H       1  ZINC000194290865    0.0800
     57 H57        -0.5014    5.7922   55.7949 H       1  ZINC000194290865    0.1000
@<TRIPOS>BOND
     1     1     2    1
     2     1    29    1
     3     1    30    1
     4     1    31    1
     5     2     3    1
     6     2    32    1
     7     2    33    1
     8     3     4    1
     9     4     5    2
    10     4     6    1
    11     6    28    1
    12     6     7    1
    13     6    10    1
    14     7     8    1
    15     7     9    1
    16     7    34    1
    17     8    35    1
    18     8    36    1
    19     8    37    1
    20     9    38    1
    21     9    39    1
    22     9    40    1
    23    10    11    1
    24    10    41    1
    25    10    42    1
    26    11    12    1
    27    11    43    1
    28    11    44    1
    29    12    13   am
    30    12    28    1
    31    13    14    2
    32    13    15    1
    33    15    21   ar
    34    15    16   ar
    35    16    24    1
    36    16    17   ar
    37    17    18   ar
    38    17    22    1
    39    18    19   ar
    40    19    20    1
    41    19    21   ar
    42    20    45    1
    43    20    46    1
    44    20    47    1
    45    21    48    1
    46    22    23    1
    47    23    24    2
    48    24    25    1
    49    25    26    1
    50    25    27    1
    51    25    49    1
    52    26    50    1
    53    26    51    1
    54    26    52    1
    55    27    53    1
    56    27    54    1
    57    27    55    1
    58    28    56    1
    59    28    57    1
@<TRIPOS>SUBSTRUCTURE
     1 ZINC000194290865        1 TEMP              0 ****  ****    0 ROOT


##########                                Name:    ZINC000967287417
##########                DOCK_Rotatable_Bonds:                   7
##########                         Heavy_Atoms:                  25
##########                    Molecular_Weight:             347.414
##########                DOCK_Rotatable_Bonds:                   7
##########                       Formal_Charge:          -0.0200002
##########                     HBond_Acceptors:                   7
##########                        HBond_Donors:                   1
##########                         Heavy_Atoms:                  25
##########                          Grid_Score:          -30.408295
##########                     Grid_vdw_energy:          -30.761356
##########                      Grid_es_energy:            0.353061
##########           Internal_energy_repulsive:            8.041024

@<TRIPOS>MOLECULE
ZINC000967287417
 50 52 1 0 0
SMALL
USER_CHARGES


@<TRIPOS>ATOM
      1 C1         -2.6075    2.7288   51.4583 C.3     1  ZINC000967287417    0.0300
      2 O2         -3.7806    2.4882   52.2381 O.3     1  ZINC000967287417   -0.3900
      3 C3         -4.8830    1.9762   51.4867 C.3     1  ZINC000967287417    0.1400
      4 C4         -6.0489    1.7306   52.4093 C.2     1  ZINC000967287417    0.0100
      5 C5         -6.3137    2.4170   53.5428 C.2     1  ZINC000967287417   -0.1900
      6 C6         -7.4833    1.8701   54.0933 C.2     1  ZINC000967287417   -0.1200
      7 C7         -7.8778    0.8650   53.2575 C.2     1  ZINC000967287417   -0.0700
      8 C8         -9.0562    0.0101   53.4338 C.2     1  ZINC000967287417    0.6100
      9 O9         -9.3227   -0.8379   52.6026 O.2     1  ZINC000967287417   -0.5200
     10 N10        -9.8443    0.1635   54.5164 N.am    1  ZINC000967287417   -0.7000
     11 C11       -11.0205   -0.6917   54.6934 C.3     1  ZINC000967287417    0.1600
     12 H12       -11.2516   -1.1920   53.7529 H       1  ZINC000967287417    0.1000
     13 C13       -10.7332   -1.7389   55.7718 C.3     1  ZINC000967287417    0.0400
     14 N14       -10.4415   -1.0658   57.0440 N.3     1  ZINC000967287417   -0.5300
     15 C15       -10.0257   -2.0334   58.0681 C.3     1  ZINC000967287417    0.1300
     16 C16        -9.2374   -1.3239   59.1388 C.2     1  ZINC000967287417    0.0200
     17 N17        -7.9819   -0.9842   59.0870 N.2     1  ZINC000967287417   -0.3500
     18 O18        -7.6293   -0.4261   60.1001 O.3     1  ZINC000967287417    0.1000
     19 C19        -8.6350   -0.3208   60.9800 C.2     1  ZINC000967287417   -0.0300
     20 C20        -8.5757    0.3121   62.3464 C.3     1  ZINC000967287417   -0.0800
     21 C21        -9.7166   -0.8899   60.3961 C.2     1  ZINC000967287417   -0.2400
     22 C22       -11.5911   -0.2755   57.5024 C.3     1  ZINC000967287417    0.0500
     23 C23       -11.9040    0.8152   56.4756 C.3     1  ZINC000967287417   -0.1100
     24 C24       -12.2148    0.1642   55.1241 C.3     1  ZINC000967287417   -0.1000
     25 H25       -13.0994   -0.4657   55.2180 H       1  ZINC000967287417    0.0900
     26 C26       -12.4704    1.2523   54.0792 C.3     1  ZINC000967287417   -0.1500
     27 O27        -6.9966    0.7998   52.2380 O.3     1  ZINC000967287417   -0.1600
     28 H28        -2.8320    3.4577   50.6795 H       1  ZINC000967287417    0.0500
     29 H29        -1.8169    3.1159   52.1012 H       1  ZINC000967287417    0.0900
     30 H30        -2.2786    1.7964   50.9994 H       1  ZINC000967287417    0.0500
     31 H31        -5.1698    2.6997   50.7235 H       1  ZINC000967287417    0.0900
     32 H32        -4.5938    1.0399   51.0093 H       1  ZINC000967287417    0.0700
     33 H33        -5.7344    3.2330   53.9488 H       1  ZINC000967287417    0.1600
     34 H34        -7.9757    2.1834   55.0021 H       1  ZINC000967287417    0.1600
     35 H35        -9.6326    0.8402   55.1784 H       1  ZINC000967287417    0.4100
     36 H36       -11.6037   -2.3835   55.8933 H       1  ZINC000967287417    0.0500
     37 H37        -9.8745   -2.3408   55.4741 H       1  ZINC000967287417    0.0900
     38 H38       -10.9080   -2.4945   58.5119 H       1  ZINC000967287417    0.0600
     39 H39        -9.4049   -2.8033   57.6099 H       1  ZINC000967287417    0.0900
     40 H40        -7.5685    0.6860   62.5303 H       1  ZINC000967287417    0.0800
     41 H41        -9.2847    1.1387   62.3951 H       1  ZINC000967287417    0.0900
     42 H42        -8.8311   -0.4307   63.1021 H       1  ZINC000967287417    0.0900
     43 H43       -10.7128   -0.9941   60.8002 H       1  ZINC000967287417    0.1700
     44 H44       -12.4576   -0.9270   57.6157 H       1  ZINC000967287417    0.0400
     45 H45       -11.3556    0.1854   58.4617 H       1  ZINC000967287417    0.0800
     46 H46       -12.7671    1.3917   56.8087 H       1  ZINC000967287417    0.0700
     47 H47       -11.0429    1.4753   56.3720 H       1  ZINC000967287417    0.0700
     48 H48       -11.5845    1.8802   53.9843 H       1  ZINC000967287417    0.0600
     49 H49       -12.6914    0.7881   53.1180 H       1  ZINC000967287417    0.0600
     50 H50       -13.3174    1.8634   54.3908 H       1  ZINC000967287417    0.0600
@<TRIPOS>BOND
     1     1     2    1
     2     1    28    1
     3     1    29    1
     4     1    30    1
     5     2     3    1
     6     3     4    1
     7     3    31    1
     8     3    32    1
     9     4    27    1
    10     4     5    2
    11     5     6    1
    12     5    33    1
    13     6     7    2
    14     6    34    1
    15     7     8    1
    16     7    27    1
    17     8     9    2
    18     8    10   am
    19    10    11    1
    20    10    35    1
    21    11    12    1
    22    11    24    1
    23    11    13    1
    24    13    14    1
    25    13    36    1
    26    13    37    1
    27    14    15    1
    28    14    22    1
    29    15    16    1
    30    15    38    1
    31    15    39    1
    32    16    21    1
    33    16    17    2
    34    17    18    1
    35    18    19    1
    36    19    20    1
    37    19    21    2
    38    20    40    1
    39    20    41    1
    40    20    42    1
    41    21    43    1
    42    22    23    1
    43    22    44    1
    44    22    45    1
    45    23    24    1
    46    23    46    1
    47    23    47    1
    48    24    25    1
    49    24    26    1
    50    26    48    1
    51    26    49    1
    52    26    50    1
@<TRIPOS>SUBSTRUCTURE
     1 ZINC000967287417        1 TEMP              0 ****  ****    0 ROOT


##########                                Name:    ZINC000957079511
##########                DOCK_Rotatable_Bonds:                   8
##########                         Heavy_Atoms:                  25
##########                    Molecular_Weight:             362.453
##########                DOCK_Rotatable_Bonds:                   8
##########                       Formal_Charge:        -4.32134e-07
##########                     HBond_Acceptors:                   8
##########                        HBond_Donors:                   2
##########                         Heavy_Atoms:                  25
##########                          Grid_Score:          -30.403934
##########                     Grid_vdw_energy:          -29.343363
##########                      Grid_es_energy:           -1.060571
##########           Internal_energy_repulsive:           18.514109

@<TRIPOS>MOLECULE
ZINC000957079511
 47 49 1 0 0
SMALL
USER_CHARGES


@<TRIPOS>ATOM
      1 C1        -10.0161    1.6371   52.6195 C.3     1  ZINC000957079511   -0.0700
      2 C2         -8.6337    1.0378   52.6514 C.2     1  ZINC000957079511    0.0300
      3 C3         -7.4831    1.7118   52.8388 C.2     1  ZINC000957079511   -0.0200
      4 C4         -7.3364    3.1961   53.0543 C.3     1  ZINC000957079511   -0.0600
      5 C5         -6.0784    3.6797   52.3800 C.2     1  ZINC000957079511    0.5100
      6 O6         -6.1469    4.4748   51.4668 O.2     1  ZINC000957079511   -0.5200
      7 N7         -4.8770    3.2284   52.7919 N.am    1  ZINC000957079511   -0.7200
      8 C8         -3.6541    3.6971   52.1353 C.3     1  ZINC000957079511    0.1400
      9 H9         -3.8430    4.6073   51.5662 H       1  ZINC000957079511    0.1100
     10 C10        -3.0506    2.5926   51.2320 C.3     1  ZINC000957079511    0.0800
     11 N11        -1.6158    2.9195   51.1438 N.am    1  ZINC000957079511   -0.6200
     12 C12        -0.7860    2.5504   50.1480 C.2     1  ZINC000957079511    0.5400
     13 O13        -1.2064    1.8897   49.2219 O.2     1  ZINC000957079511   -0.5100
     14 C14         0.6643    2.9584   50.1854 C.3     1  ZINC000957079511    0.0500
     15 O15         1.4723    1.8183   50.4844 O.3     1  ZINC000957079511   -0.2800
     16 C16         1.9907    1.1333   49.4272 C.2     1  ZINC000957079511    0.1200
     17 C17         2.8771    0.1443   49.5755 C.2     1  ZINC000957079511   -0.3300
     18 S18         3.3146   -0.4975   47.9975 S.3     1  ZINC000957079511    0.1300
     19 C19         2.2400    0.6438   47.2004 C.2     1  ZINC000957079511   -0.1800
     20 C20         1.6350    1.4044   48.1147 C.2     1  ZINC000957079511   -0.1400
     21 C21        -1.2402    3.7157   52.3214 C.3     1  ZINC000957079511    0.1100
     22 C22        -2.5161    3.9128   53.1677 C.3     1  ZINC000957079511   -0.1100
     23 H23        -2.5708    3.1683   53.9621 H       1  ZINC000957079511    0.0900
     24 C24        -2.5667    5.3270   53.7494 C.3     1  ZINC000957079511   -0.1400
     25 N25        -6.4725    0.7897   52.7965 N.pl3   1  ZINC000957079511   -0.5600
     26 C26        -7.0411   -0.4167   52.5845 C.2     1  ZINC000957079511    0.2000
     27 N27        -8.3343   -0.2613   52.5037 N.2     1  ZINC000957079511   -0.4900
     28 H28       -10.4312    1.6469   53.6273 H       1  ZINC000957079511    0.0700
     29 H29        -9.9613    2.6571   52.2393 H       1  ZINC000957079511    0.0600
     30 H30       -10.6558    1.0407   51.9690 H       1  ZINC000957079511    0.0700
     31 H31        -8.1976    3.7119   52.6294 H       1  ZINC000957079511    0.1000
     32 H32        -7.2791    3.4042   54.1227 H       1  ZINC000957079511    0.1200
     33 H33        -4.8220    2.5934   53.5231 H       1  ZINC000957079511    0.4000
     34 H34        -3.1890    1.6122   51.6879 H       1  ZINC000957079511    0.0800
     35 H35        -3.5075    2.6199   50.2429 H       1  ZINC000957079511    0.0800
     36 H36         0.9527    3.3638   49.2156 H       1  ZINC000957079511    0.0900
     37 H37         0.8084    3.7176   50.9541 H       1  ZINC000957079511    0.0900
     38 H38         3.2659   -0.2069   50.5199 H       1  ZINC000957079511    0.1700
     39 H39         2.0894    0.7153   46.1334 H       1  ZINC000957079511    0.1800
     40 H40         0.9280    2.1775   47.8520 H       1  ZINC000957079511    0.1500
     41 H41        -0.4874    3.1841   52.9034 H       1  ZINC000957079511    0.0800
     42 H42        -0.8523    4.6840   52.0058 H       1  ZINC000957079511    0.0800
     43 H43        -2.5410    6.0546   52.9382 H       1  ZINC000957079511    0.0600
     44 H44        -3.4865    5.4521   54.3208 H       1  ZINC000957079511    0.0600
     45 H45        -1.7087    5.4816   54.4036 H       1  ZINC000957079511    0.0700
     46 H46        -5.5248    0.9692   52.8995 H       1  ZINC000957079511    0.4200
     47 H47        -6.5134   -1.3552   52.4999 H       1  ZINC000957079511    0.2100
@<TRIPOS>BOND
     1     1     2    1
     2     1    28    1
     3     1    29    1
     4     1    30    1
     5     2    27    1
     6     2     3    2
     7     3     4    1
     8     3    25    1
     9     4     5    1
    10     4    31    1
    11     4    32    1
    12     5     6    2
    13     5     7   am
    14     7     8    1
    15     7    33    1
    16     8     9    1
    17     8    22    1
    18     8    10    1
    19    10    11    1
    20    10    34    1
    21    10    35    1
    22    11    12   am
    23    11    21    1
    24    12    13    2
    25    12    14    1
    26    14    15    1
    27    14    36    1
    28    14    37    1
    29    15    16    1
    30    16    20    1
    31    16    17    2
    32    17    18    1
    33    17    38    1
    34    18    19    1
    35    19    20    2
    36    19    39    1
    37    20    40    1
    38    21    22    1
    39    21    41    1
    40    21    42    1
    41    22    23    1
    42    22    24    1
    43    24    43    1
    44    24    44    1
    45    24    45    1
    46    25    26    1
    47    25    46    1
    48    26    27    2
    49    26    47    1
@<TRIPOS>SUBSTRUCTURE
     1 ZINC000957079511        1 TEMP              0 ****  ****    0 ROOT


##########                                Name:    ZINC000151820600
##########                DOCK_Rotatable_Bonds:                  10
##########                         Heavy_Atoms:                  25
##########                    Molecular_Weight:             388.915
##########                DOCK_Rotatable_Bonds:                  10
##########                       Formal_Charge:           0.0499998
##########                     HBond_Acceptors:                   8
##########                        HBond_Donors:                   2
##########                         Heavy_Atoms:                  25
##########                          Grid_Score:          -30.396879
##########                     Grid_vdw_energy:          -30.019753
##########                      Grid_es_energy:           -0.377126
##########           Internal_energy_repulsive:           36.220257

@<TRIPOS>MOLECULE
ZINC000151820600
 50 50 1 0 0
SMALL
USER_CHARGES


@<TRIPOS>ATOM
      1 C1        -12.5422    1.5327   53.0267 C.3     1  ZINC000151820600   -0.4900
      2 S2        -11.2946    0.6271   53.9827 S.o     1  ZINC000151820600    1.2500
      3 O3        -10.9187    1.3947   55.1180 O.2     1  ZINC000151820600   -0.8500
      4 C4         -9.8956    0.5231   52.8328 C.3     1  ZINC000151820600   -0.4500
      5 C5         -8.7410   -0.2261   53.5009 C.3     1  ZINC000151820600   -0.1100
      6 C6         -7.5616   -0.3156   52.5302 C.3     1  ZINC000151820600    0.1200
      7 N7         -7.1232    1.0347   52.1686 N.am    1  ZINC000151820600   -0.7200
      8 C8         -6.0650    1.2034   51.3512 C.2     1  ZINC000151820600    0.5200
      9 O9         -5.4747    0.2373   50.9162 O.2     1  ZINC000151820600   -0.5200
     10 C10        -5.6152    2.5923   50.9778 C.3     1  ZINC000151820600    0.1900
     11 H11        -5.6519    2.7072   49.8945 H       1  ZINC000151820600    0.1300
     12 N12        -6.5011    3.5773   51.6036 N.am    1  ZINC000151820600   -0.6900
     13 C13        -7.4382    4.2054   50.8662 C.2     1  ZINC000151820600    0.6600
     14 O14        -7.5475    3.9557   49.6820 O.2     1  ZINC000151820600   -0.5600
     15 O15        -8.2533    5.1093   51.4416 O.3     1  ZINC000151820600   -0.3600
     16 C16        -9.2226    5.7645   50.5816 C.3     1  ZINC000151820600    0.1400
     17 C17       -10.0526    6.7500   51.4068 C.3     1  ZINC000151820600   -0.1800
     18 C18        -8.4903    6.5198   49.4706 C.3     1  ZINC000151820600   -0.1400
     19 C19       -10.1462    4.7143   49.9613 C.3     1  ZINC000151820600   -0.1800
     20 C20        -4.2035    2.8094   51.4585 C.ar    1  ZINC000151820600   -0.1000
     21 C21        -3.9733    3.2657   52.7427 C.ar    1  ZINC000151820600   -0.0900
     22 C22        -2.6784    3.4646   53.1846 C.ar    1  ZINC000151820600   -0.1000
     23 C23        -1.6134    3.2079   52.3422 C.ar    1  ZINC000151820600   -0.1000
     24 C24        -1.8433    2.7511   51.0563 C.ar    1  ZINC000151820600   -0.0300
     25 Cl25       -0.5060    2.4278   49.9976 Cl      1  ZINC000151820600   -0.0600
     26 C26        -3.1389    2.5469   50.6168 C.ar    1  ZINC000151820600   -0.0900
     27 H27       -12.1503    2.5126   52.7541 H       1  ZINC000151820600    0.0800
     28 H28       -12.7836    0.9736   52.1226 H       1  ZINC000151820600    0.1100
     29 H29       -13.4424    1.6562   53.6288 H       1  ZINC000151820600    0.1100
     30 H30       -10.2032   -0.0108   51.9337 H       1  ZINC000151820600    0.1200
     31 H31        -9.5699    1.5282   52.5651 H       1  ZINC000151820600    0.0900
     32 H32        -8.4323    0.3085   54.3992 H       1  ZINC000151820600    0.0800
     33 H33        -9.0671   -1.2308   53.7699 H       1  ZINC000151820600    0.0900
     34 H34        -6.7391   -0.8494   53.0062 H       1  ZINC000151820600    0.0800
     35 H35        -7.8701   -0.8502   51.6318 H       1  ZINC000151820600    0.0700
     36 H36        -7.5946    1.8074   52.5175 H       1  ZINC000151820600    0.4000
     37 H37        -6.4130    3.7774   52.5486 H       1  ZINC000151820600    0.4200
     38 H38        -9.3945    7.4982   51.8487 H       1  ZINC000151820600    0.0600
     39 H39       -10.7801    7.2419   50.7612 H       1  ZINC000151820600    0.0700
     40 H40       -10.5742    6.2119   52.1983 H       1  ZINC000151820600    0.0900
     41 H41        -7.8990    5.8177   48.8827 H       1  ZINC000151820600    0.0700
     42 H42        -9.2179    7.0116   48.8251 H       1  ZINC000151820600    0.0800
     43 H43        -7.8323    7.2680   49.9126 H       1  ZINC000151820600    0.0700
     44 H44       -10.6679    4.1763   50.7528 H       1  ZINC000151820600    0.0900
     45 H45       -10.8737    5.2062   49.3157 H       1  ZINC000151820600    0.0700
     46 H46        -9.5549    4.0122   49.3734 H       1  ZINC000151820600    0.0600
     47 H47        -4.8053    3.4672   53.4012 H       1  ZINC000151820600    0.1300
     48 H48        -2.4991    3.8211   54.1882 H       1  ZINC000151820600    0.1400
     49 H49        -0.6020    3.3640   52.6871 H       1  ZINC000151820600    0.1400
     50 H50        -3.3189    2.1903   49.6133 H       1  ZINC000151820600    0.1400
@<TRIPOS>BOND
     1     1     2    1
     2     1    27    1
     3     1    28    1
     4     1    29    1
     5     2     3    2
     6     2     4    1
     7     4     5    1
     8     4    30    1
     9     4    31    1
    10     5     6    1
    11     5    32    1
    12     5    33    1
    13     6     7    1
    14     6    34    1
    15     6    35    1
    16     7     8   am
    17     7    36    1
    18     8     9    2
    19     8    10    1
    20    10    11    1
    21    10    12    1
    22    10    20    1
    23    12    13   am
    24    12    37    1
    25    13    14    2
    26    13    15    1
    27    15    16    1
    28    16    17    1
    29    16    18    1
    30    16    19    1
    31    17    38    1
    32    17    39    1
    33    17    40    1
    34    18    41    1
    35    18    42    1
    36    18    43    1
    37    19    44    1
    38    19    45    1
    39    19    46    1
    40    20    26   ar
    41    20    21   ar
    42    21    22   ar
    43    21    47    1
    44    22    23   ar
    45    22    48    1
    46    23    24   ar
    47    23    49    1
    48    24    25    1
    49    24    26   ar
    50    26    50    1
@<TRIPOS>SUBSTRUCTURE
     1 ZINC000151820600        1 TEMP              0 ****  ****    0 ROOT


##########                                Name:    ZINC000971513996
##########                DOCK_Rotatable_Bonds:                   6
##########                         Heavy_Atoms:                  27
##########                    Molecular_Weight:             369.464
##########                DOCK_Rotatable_Bonds:                   6
##########                       Formal_Charge:          -0.0300002
##########                     HBond_Acceptors:                   6
##########                        HBond_Donors:                   1
##########                         Heavy_Atoms:                  27
##########                          Grid_Score:          -30.384367
##########                     Grid_vdw_energy:          -30.283337
##########                      Grid_es_energy:           -0.101030
##########           Internal_energy_repulsive:           20.137978

@<TRIPOS>MOLECULE
ZINC000971513996
 54 57 1 0 0
SMALL
USER_CHARGES


@<TRIPOS>ATOM
      1 C1        -14.5599   -2.5462   58.6905 C.3     1  ZINC000971513996   -0.1600
      2 C2        -13.2450   -2.6512   57.9154 C.3     1  ZINC000971513996   -0.1400
      3 C3        -12.0856   -2.2235   58.8175 C.3     1  ZINC000971513996    0.0800
      4 H4        -12.3053   -2.5023   59.8481 H       1  ZINC000971513996    0.0800
      5 O5        -10.8865   -2.8748   58.3931 O.3     1  ZINC000971513996   -0.3600
      6 C6        -10.6039   -2.7224   57.0006 C.3     1  ZINC000971513996    0.0200
      7 C7        -11.9046   -0.7301   58.7288 C.2     1  ZINC000971513996    0.5400
      8 O8        -12.6546   -0.0680   58.0433 O.2     1  ZINC000971513996   -0.5100
      9 N9        -10.9092   -0.1302   59.4113 N.am    1  ZINC000971513996   -0.6400
     10 C10        -9.8282   -0.5533   60.3177 C.3     1  ZINC000971513996    0.1000
     11 C11        -9.0214    0.6604   59.8175 C.3     1  ZINC000971513996   -0.1200
     12 H12        -8.4343    1.1707   60.5811 H       1  ZINC000971513996    0.1100
     13 C13        -8.2296    0.3213   58.5522 C.3     1  ZINC000971513996   -0.1200
     14 C14        -8.2421    1.5294   57.6109 C.3     1  ZINC000971513996    0.1100
     15 N15        -9.6367    1.8553   57.3010 N.am    1  ZINC000971513996   -0.6000
     16 C16       -10.0444    1.8954   56.0170 C.2     1  ZINC000971513996    0.5900
     17 O17       -11.2010    2.1656   55.7543 O.2     1  ZINC000971513996   -0.5200
     18 C18        -9.0911    1.6128   54.9335 C.2     1  ZINC000971513996    0.0200
     19 C19        -8.2214    2.5078   54.3963 C.2     1  ZINC000971513996   -0.1000
     20 C20        -7.4862    1.8416   53.3862 C.ar    1  ZINC000971513996   -0.1100
     21 C21        -6.4716    2.2460   52.5094 C.ar    1  ZINC000971513996   -0.0600
     22 C22        -5.9446    1.3526   51.6227 C.ar    1  ZINC000971513996   -0.1200
     23 C23        -4.8530    1.7911   50.6807 C.3     1  ZINC000971513996   -0.1100
     24 C24        -6.4044    0.0426   51.5805 C.ar    1  ZINC000971513996   -0.0800
     25 C25        -7.4010   -0.3792   52.4322 C.ar    1  ZINC000971513996   -0.1300
     26 C26        -7.9548    0.5135   53.3452 C.ar    1  ZINC000971513996    0.1100
     27 N27        -8.9328    0.3933   54.3040 N.pl3   1  ZINC000971513996   -0.5800
     28 C28       -10.5862    2.1359   58.3699 C.3     1  ZINC000971513996    0.0700
     29 C29       -10.4098    1.2362   59.5816 C.3     1  ZINC000971513996    0.1300
     30 H30       -10.8164    1.6997   60.4804 H       1  ZINC000971513996    0.1100
     31 H31       -15.3945   -2.7500   58.0197 H       1  ZINC000971513996    0.0600
     32 H32       -14.5616   -3.2723   59.5034 H       1  ZINC000971513996    0.0600
     33 H33       -14.6606   -1.5413   59.1008 H       1  ZINC000971513996    0.0600
     34 H34       -13.0942   -3.6818   57.5939 H       1  ZINC000971513996    0.0800
     35 H35       -13.2850   -2.0004   57.0420 H       1  ZINC000971513996    0.0800
     36 H36       -11.3728   -3.2281   56.4165 H       1  ZINC000971513996    0.0400
     37 H37       -10.5924   -1.6627   56.7460 H       1  ZINC000971513996    0.0500
     38 H38        -9.6311   -3.1604   56.7773 H       1  ZINC000971513996    0.0900
     39 H39       -10.0960   -0.4928   61.3726 H       1  ZINC000971513996    0.0900
     40 H40        -9.3844   -1.5117   60.0483 H       1  ZINC000971513996    0.0800
     41 H41        -7.2012    0.0791   58.8201 H       1  ZINC000971513996    0.0900
     42 H42        -8.6878   -0.5331   58.0539 H       1  ZINC000971513996    0.0700
     43 H43        -7.7654    2.3799   58.0982 H       1  ZINC000971513996    0.0800
     44 H44        -7.7087    1.2851   56.6923 H       1  ZINC000971513996    0.1000
     45 H45        -8.1108    3.5419   54.6876 H       1  ZINC000971513996    0.1500
     46 H46        -6.1076    3.2625   52.5348 H       1  ZINC000971513996    0.1200
     47 H47        -3.8820    1.6256   51.1476 H       1  ZINC000971513996    0.0700
     48 H48        -4.9156    1.2140   49.7581 H       1  ZINC000971513996    0.0600
     49 H49        -4.9718    2.8509   50.4551 H       1  ZINC000971513996    0.0600
     50 H50        -5.9765   -0.6519   50.8727 H       1  ZINC000971513996    0.1300
     51 H51        -7.7522   -1.3997   52.3915 H       1  ZINC000971513996    0.1200
     52 H52        -9.4306   -0.4147   54.5047 H       1  ZINC000971513996    0.4200
     53 H53       -10.4564    3.1690   58.6926 H       1  ZINC000971513996    0.0800
     54 H54       -11.5976    2.0164   57.9814 H       1  ZINC000971513996    0.1200
@<TRIPOS>BOND
     1     1     2    1
     2     1    31    1
     3     1    32    1
     4     1    33    1
     5     2     3    1
     6     2    34    1
     7     2    35    1
     8     3     4    1
     9     3     5    1
    10     3     7    1
    11     5     6    1
    12     6    36    1
    13     6    37    1
    14     6    38    1
    15     7     8    2
    16     7     9   am
    17     9    29    1
    18     9    10    1
    19    10    11    1
    20    10    39    1
    21    10    40    1
    22    11    12    1
    23    11    29    1
    24    11    13    1
    25    13    14    1
    26    13    41    1
    27    13    42    1
    28    14    15    1
    29    14    43    1
    30    14    44    1
    31    15    16   am
    32    15    28    1
    33    16    17    2
    34    16    18    1
    35    18    27    1
    36    18    19    2
    37    19    20    1
    38    19    45    1
    39    20    26   ar
    40    20    21   ar
    41    21    22   ar
    42    21    46    1
    43    22    23    1
    44    22    24   ar
    45    23    47    1
    46    23    48    1
    47    23    49    1
    48    24    25   ar
    49    24    50    1
    50    25    26   ar
    51    25    51    1
    52    26    27    1
    53    27    52    1
    54    28    29    1
    55    28    53    1
    56    28    54    1
    57    29    30    1
@<TRIPOS>SUBSTRUCTURE
     1 ZINC000971513996        1 TEMP              0 ****  ****    0 ROOT


##########                                Name:    ZINC000179496896
##########                DOCK_Rotatable_Bonds:                   8
##########                         Heavy_Atoms:                  27
##########                    Molecular_Weight:             396.504
##########                DOCK_Rotatable_Bonds:                   8
##########                       Formal_Charge:          0.00999944
##########                     HBond_Acceptors:                   8
##########                        HBond_Donors:                   1
##########                         Heavy_Atoms:                  27
##########                          Grid_Score:          -30.371490
##########                     Grid_vdw_energy:          -30.696192
##########                      Grid_es_energy:            0.324700
##########           Internal_energy_repulsive:           22.385246

@<TRIPOS>MOLECULE
ZINC000179496896
 53 55 1 0 0
SMALL
USER_CHARGES


@<TRIPOS>ATOM
      1 C1        -11.8527   -3.5529   58.1470 C.3     1  ZINC000179496896   -0.1500
      2 C2        -11.5404   -2.6082   56.9847 C.3     1  ZINC000179496896   -0.1100
      3 C3        -12.8403   -1.9879   56.4685 C.3     1  ZINC000179496896   -0.1400
      4 C4        -10.6023   -1.4997   57.4662 C.3     1  ZINC000179496896    0.1200
      5 N5        -10.0856   -0.7613   56.3112 N.pl3   1  ZINC000179496896   -0.3300
      6 N6        -10.2689   -1.1107   54.9687 N.2     1  ZINC000179496896   -0.2700
      7 C7         -9.6714   -0.2279   54.2169 C.2     1  ZINC000179496896    0.0800
      8 C8         -9.0744    0.7339   55.0624 C.2     1  ZINC000179496896   -0.2500
      9 C9         -8.2969    1.9117   54.6361 C.2     1  ZINC000179496896    0.5900
     10 O10        -8.5490    3.0072   55.0999 O.2     1  ZINC000179496896   -0.5300
     11 N11        -7.3066    1.7743   53.7322 N.am    1  ZINC000179496896   -0.7100
     12 C12        -6.5352    2.9451   53.3072 C.3     1  ZINC000179496896    0.1300
     13 C13        -5.9137    2.6757   51.9354 C.3     1  ZINC000179496896    0.0700
     14 H14        -6.1589    1.6622   51.6181 H       1  ZINC000179496896    0.0900
     15 C15        -6.4677    3.6763   50.9191 C.3     1  ZINC000179496896   -0.1900
     16 N16        -4.4546    2.8222   52.0214 N.3     1  ZINC000179496896   -0.5300
     17 C17        -4.0831    4.2023   52.3647 C.3     1  ZINC000179496896    0.0600
     18 C18        -2.6233    4.2269   52.8340 C.3     1  ZINC000179496896   -0.0400
     19 C19        -1.7924    3.4643   51.8237 C.2     1  ZINC000179496896   -0.1700
     20 C20        -2.3099    2.6375   50.8934 C.2     1  ZINC000179496896   -0.1100
     21 C21        -1.3523    2.0499   50.0748 C.2     1  ZINC000179496896   -0.1200
     22 C22        -0.0911    2.3865   50.3305 C.2     1  ZINC000179496896   -0.2200
     23 S23        -0.0431    3.5138   51.6785 S.3     1  ZINC000179496896    0.1000
     24 C24        -3.8076    2.3896   50.7754 C.3     1  ZINC000179496896    0.1200
     25 C25        -9.3611    0.3679   56.3622 C.2     1  ZINC000179496896    0.0700
     26 C26        -8.9312    1.0963   57.6094 C.3     1  ZINC000179496896    0.3400
     27 F27        -9.9507    1.9625   58.0186 F       1  ZINC000179496896   -0.1500
     28 F28        -8.6714    0.1695   58.6246 F       1  ZINC000179496896   -0.2000
     29 H29       -12.5211   -4.3426   57.8040 H       1  ZINC000179496896    0.0600
     30 H30       -10.9266   -3.9948   58.5148 H       1  ZINC000179496896    0.0600
     31 H31       -12.3327   -2.9942   58.9504 H       1  ZINC000179496896    0.0600
     32 H32       -11.0604   -3.1670   56.1813 H       1  ZINC000179496896    0.0800
     33 H33       -13.3203   -1.4290   57.2719 H       1  ZINC000179496896    0.0600
     34 H34       -12.6179   -1.3148   55.6403 H       1  ZINC000179496896    0.0600
     35 H35       -13.5087   -2.7775   56.1253 H       1  ZINC000179496896    0.0700
     36 H36       -11.1493   -0.8183   58.1179 H       1  ZINC000179496896    0.1000
     37 H37        -9.7714   -1.9406   58.0170 H       1  ZINC000179496896    0.1000
     38 H38        -9.6385   -0.2316   53.1374 H       1  ZINC000179496896    0.2000
     39 H39        -7.1047    0.9004   53.3630 H       1  ZINC000179496896    0.4100
     40 H40        -7.1942    3.8109   53.2439 H       1  ZINC000179496896    0.0700
     41 H41        -5.7450    3.1420   54.0317 H       1  ZINC000179496896    0.0700
     42 H42        -6.0249    3.4845   49.9418 H       1  ZINC000179496896    0.0600
     43 H43        -7.5504    3.5676   50.8553 H       1  ZINC000179496896    0.0700
     44 H44        -6.2224    4.6899   51.2364 H       1  ZINC000179496896    0.0600
     45 H45        -4.1945    4.8388   51.4868 H       1  ZINC000179496896    0.0400
     46 H46        -4.7290    4.5656   53.1639 H       1  ZINC000179496896    0.0900
     47 H47        -2.2736    5.2574   52.8955 H       1  ZINC000179496896    0.0800
     48 H48        -2.5428    3.7510   53.8112 H       1  ZINC000179496896    0.0900
     49 H49        -1.6153    1.3645   49.2827 H       1  ZINC000179496896    0.1400
     50 H50         0.7716    2.0229   49.7920 H       1  ZINC000179496896    0.1600
     51 H51        -3.9913    1.3268   50.6177 H       1  ZINC000179496896    0.0900
     52 H52        -4.2080    2.9609   49.9379 H       1  ZINC000179496896    0.0500
     53 H53        -8.0282    1.6705   57.4019 H       1  ZINC000179496896    0.1300
@<TRIPOS>BOND
     1     1     2    1
     2     1    29    1
     3     1    30    1
     4     1    31    1
     5     2     3    1
     6     2     4    1
     7     2    32    1
     8     3    33    1
     9     3    34    1
    10     3    35    1
    11     4     5    1
    12     4    36    1
    13     4    37    1
    14     5    25    1
    15     5     6    1
    16     6     7    2
    17     7     8    1
    18     7    38    1
    19     8     9    1
    20     8    25    2
    21     9    10    2
    22     9    11   am
    23    11    12    1
    24    11    39    1
    25    12    13    1
    26    12    40    1
    27    12    41    1
    28    13    14    1
    29    13    15    1
    30    13    16    1
    31    15    42    1
    32    15    43    1
    33    15    44    1
    34    16    24    1
    35    16    17    1
    36    17    18    1
    37    17    45    1
    38    17    46    1
    39    18    19    1
    40    18    47    1
    41    18    48    1
    42    19    23    1
    43    19    20    2
    44    20    21    1
    45    20    24    1
    46    21    22    2
    47    21    49    1
    48    22    23    1
    49    22    50    1
    50    24    51    1
    51    24    52    1
    52    25    26    1
    53    26    27    1
    54    26    28    1
    55    26    53    1
@<TRIPOS>SUBSTRUCTURE
     1 ZINC000179496896        1 TEMP              0 ****  ****    0 ROOT


##########                                Name:    ZINC001408567397
##########                DOCK_Rotatable_Bonds:                   9
##########                         Heavy_Atoms:                  24
##########                    Molecular_Weight:             336.434
##########                DOCK_Rotatable_Bonds:                   9
##########                       Formal_Charge:          -0.0199996
##########                     HBond_Acceptors:                   7
##########                        HBond_Donors:                   2
##########                         Heavy_Atoms:                  24
##########                          Grid_Score:          -30.357653
##########                     Grid_vdw_energy:          -31.214157
##########                      Grid_es_energy:            0.856504
##########           Internal_energy_repulsive:           38.926575

@<TRIPOS>MOLECULE
ZINC001408567397
 52 53 1 0 0
SMALL
USER_CHARGES


@<TRIPOS>ATOM
      1 C1         -9.4129   -0.3658   53.8385 C.3     1  ZINC001408567397   -0.0800
      2 C2         -8.2021    0.0065   53.0221 C.2     1  ZINC001408567397    0.0900
      3 N3         -7.5493   -0.7871   52.2123 N.2     1  ZINC001408567397   -0.2900
      4 N4         -6.4920   -0.0624   51.6473 N.pl3   1  ZINC001408567397   -0.4700
      5 C5         -6.5341    1.1908   52.1461 C.2     1  ZINC001408567397    0.1100
      6 C6         -5.5840    2.3121   51.8130 C.3     1  ZINC001408567397   -0.1000
      7 C7         -7.5858    1.2618   52.9947 C.2     1  ZINC001408567397   -0.2200
      8 C8         -8.0122    2.4762   53.7784 C.3     1  ZINC001408567397   -0.0600
      9 C9         -7.4395    2.4023   55.1704 C.2     1  ZINC001408567397    0.5100
     10 O10        -6.2532    2.5811   55.3484 O.2     1  ZINC001408567397   -0.5300
     11 N11        -8.2455    2.1373   56.2176 N.am    1  ZINC001408567397   -0.7300
     12 C12        -7.6890    2.0672   57.5710 C.3     1  ZINC001408567397    0.1100
     13 C13        -8.7765    1.6130   58.5466 C.3     1  ZINC001408567397    0.1000
     14 N14        -8.7915    0.1496   58.6143 N.am    1  ZINC001408567397   -0.6200
     15 C15        -7.7701   -0.5583   59.3902 C.3     1  ZINC001408567397    0.0700
     16 C16        -9.7450   -0.5455   57.9629 C.2     1  ZINC001408567397    0.5100
     17 O17       -10.5895    0.0405   57.3194 O.2     1  ZINC001408567397   -0.5300
     18 C18        -9.7613   -2.0507   58.0340 C.3     1  ZINC001408567397   -0.1300
     19 C19       -11.1012   -2.5197   58.6046 C.3     1  ZINC001408567397   -0.1100
     20 H20       -10.9949   -3.5296   59.0008 H       1  ZINC001408567397    0.0900
     21 C21       -11.5394   -1.5733   59.7264 C.3     1  ZINC001408567397   -0.1200
     22 C22       -12.9171   -2.0070   60.2364 C.3     1  ZINC001408567397   -0.1600
     23 C23       -13.9051   -2.0188   59.0672 C.3     1  ZINC001408567397    0.0600
     24 O24       -13.4225   -2.8945   58.0462 O.3     1  ZINC001408567397   -0.3800
     25 C25       -12.1590   -2.5132   57.4979 C.3     1  ZINC001408567397    0.0600
     26 H26       -10.3155   -0.1727   53.2587 H       1  ZINC001408567397    0.0800
     27 H27        -9.3661   -1.4239   54.0962 H       1  ZINC001408567397    0.0700
     28 H28        -9.4329    0.2299   54.7511 H       1  ZINC001408567397    0.0800
     29 H29        -5.8439   -0.4016   51.0101 H       1  ZINC001408567397    0.4400
     30 H30        -5.9657    2.8698   50.9579 H       1  ZINC001408567397    0.0800
     31 H31        -5.4937    2.9787   52.6706 H       1  ZINC001408567397    0.0900
     32 H32        -4.6052    1.8987   51.5695 H       1  ZINC001408567397    0.0700
     33 H33        -7.6468    3.3754   53.2826 H       1  ZINC001408567397    0.1000
     34 H34        -9.1002    2.5088   53.8346 H       1  ZINC001408567397    0.1000
     35 H35        -9.1941    1.9930   56.0752 H       1  ZINC001408567397    0.4000
     36 H36        -6.8645    1.3545   57.5884 H       1  ZINC001408567397    0.0700
     37 H37        -7.3247    3.0514   57.8655 H       1  ZINC001408567397    0.0700
     38 H38        -8.5700    2.0204   59.5363 H       1  ZINC001408567397    0.0800
     39 H39        -9.7466    1.9706   58.2016 H       1  ZINC001408567397    0.0900
     40 H40        -8.1180   -0.6892   60.4148 H       1  ZINC001408567397    0.0600
     41 H41        -7.5849   -1.5344   58.9419 H       1  ZINC001408567397    0.0800
     42 H42        -6.8474    0.0220   59.3911 H       1  ZINC001408567397    0.0800
     43 H43        -9.6279   -2.4632   57.0340 H       1  ZINC001408567397    0.1000
     44 H44        -8.9521   -2.3927   58.6792 H       1  ZINC001408567397    0.1000
     45 H45       -10.8182   -1.6166   60.5425 H       1  ZINC001408567397    0.0700
     46 H46       -11.5969   -0.5548   59.3426 H       1  ZINC001408567397    0.0600
     47 H47       -12.8485   -3.0068   60.6654 H       1  ZINC001408567397    0.0700
     48 H48       -13.2612   -1.3062   60.9971 H       1  ZINC001408567397    0.0700
     49 H49       -14.8770   -2.3679   59.4159 H       1  ZINC001408567397    0.0900
     50 H50       -14.0038   -1.0106   58.6646 H       1  ZINC001408567397    0.0500
     51 H51       -12.2339   -1.5115   57.0745 H       1  ZINC001408567397    0.0400
     52 H52       -11.8743   -3.2178   56.7166 H       1  ZINC001408567397    0.1100
@<TRIPOS>BOND
     1     1     2    1
     2     1    26    1
     3     1    27    1
     4     1    28    1
     5     2     7    1
     6     2     3    2
     7     3     4    1
     8     4     5    1
     9     4    29    1
    10     5     6    1
    11     5     7    2
    12     6    30    1
    13     6    31    1
    14     6    32    1
    15     7     8    1
    16     8     9    1
    17     8    33    1
    18     8    34    1
    19     9    10    2
    20     9    11   am
    21    11    12    1
    22    11    35    1
    23    12    13    1
    24    12    36    1
    25    12    37    1
    26    13    14    1
    27    13    38    1
    28    13    39    1
    29    14    15    1
    30    14    16   am
    31    15    40    1
    32    15    41    1
    33    15    42    1
    34    16    17    2
    35    16    18    1
    36    18    19    1
    37    18    43    1
    38    18    44    1
    39    19    20    1
    40    19    25    1
    41    19    21    1
    42    21    22    1
    43    21    45    1
    44    21    46    1
    45    22    23    1
    46    22    47    1
    47    22    48    1
    48    23    24    1
    49    23    49    1
    50    23    50    1
    51    24    25    1
    52    25    51    1
    53    25    52    1
@<TRIPOS>SUBSTRUCTURE
     1 ZINC001408567397        1 TEMP              0 ****  ****    0 ROOT


##########                                Name:    ZINC000269356812
##########                DOCK_Rotatable_Bonds:                  10
##########                         Heavy_Atoms:                  25
##########                    Molecular_Weight:             387.431
##########                DOCK_Rotatable_Bonds:                  10
##########                       Formal_Charge:          0.00999978
##########                     HBond_Acceptors:                  10
##########                        HBond_Donors:                   3
##########                         Heavy_Atoms:                  25
##########                          Grid_Score:          -30.342209
##########                     Grid_vdw_energy:          -28.975914
##########                      Grid_es_energy:           -1.366295
##########           Internal_energy_repulsive:            8.777652

@<TRIPOS>MOLECULE
ZINC000269356812
 40 41 1 0 0
SMALL
USER_CHARGES


@<TRIPOS>ATOM
      1 C1        -10.9903    0.1506   53.4534 C.3     1  ZINC000269356812   -0.1400
      2 C2         -9.5265    0.5718   53.5983 C.3     1  ZINC000269356812    0.2000
      3 O3         -8.6840   -0.4267   53.0192 O.3     1  ZINC000269356812   -0.5400
      4 C4         -9.3057    1.9045   52.8800 C.3     1  ZINC000269356812    0.0900
      5 N5         -7.8764    2.0852   52.6144 N.am    1  ZINC000269356812   -0.6900
      6 C6         -7.4589    3.1046   51.8378 C.2     1  ZINC000269356812    0.5100
      7 O7         -8.2672    3.8718   51.3572 O.2     1  ZINC000269356812   -0.5100
      8 C8         -6.0019    3.2898   51.5686 C.2     1  ZINC000269356812    0.5100
      9 O9         -5.6207    4.2436   50.9215 O.2     1  ZINC000269356812   -0.4900
     10 N10        -5.1100    2.3980   52.0438 N.am    1  ZINC000269356812   -0.6400
     11 C11        -3.7448    2.5716   51.7915 C.ar    1  ZINC000269356812    0.0900
     12 C12        -3.1873    2.1318   50.5911 C.ar    1  ZINC000269356812   -0.0600
     13 C13        -1.8342    2.3244   50.3839 C.ar    1  ZINC000269356812   -0.1200
     14 C14        -1.0782    2.9463   51.3729 C.ar    1  ZINC000269356812    0.1000
     15 S15         0.6474    3.1984   51.1211 S.3     1  ZINC000269356812   -0.0600
     16 C16         1.1789    1.6439   50.3520 C.3     1  ZINC000269356812    0.2900
     17 F17         1.2713    1.8167   48.9668 F       1  ZINC000269356812   -0.1700
     18 F18         2.4292    1.2756   50.8604 F       1  ZINC000269356812   -0.1700
     19 N19        -1.6413    3.3514   52.5012 N.ar    1  ZINC000269356812   -0.4600
     20 C20        -2.9301    3.1887   52.7300 C.ar    1  ZINC000269356812    0.1100
     21 C21        -9.1907    0.7268   55.0592 C.2     1  ZINC000269356812   -0.2300
     22 C22        -9.7067   -0.0041   56.0486 C.2     1  ZINC000269356812   -0.1100
     23 C23        -9.2470    0.3193   57.3136 C.2     1  ZINC000269356812   -0.1400
     24 C24        -8.3577    1.3127   57.3515 C.2     1  ZINC000269356812   -0.2000
     25 S25        -8.0527    1.8939   55.7196 S.3     1  ZINC000269356812    0.1100
     26 H26       -11.1475   -0.7989   53.9651 H       1  ZINC000269356812    0.0800
     27 H27       -11.6329    0.9122   53.8952 H       1  ZINC000269356812    0.0800
     28 H28       -11.2332    0.0384   52.3968 H       1  ZINC000269356812    0.0700
     29 H29        -7.7393   -0.2718   53.1557 H       1  ZINC000269356812    0.3800
     30 H30        -9.8533    1.9043   51.9375 H       1  ZINC000269356812    0.0900
     31 H31        -9.6645    2.7197   53.5084 H       1  ZINC000269356812    0.0900
     32 H32        -7.2305    1.4713   52.9975 H       1  ZINC000269356812    0.4200
     33 H33        -5.4147    1.6358   52.5607 H       1  ZINC000269356812    0.4300
     34 H34        -3.7984    1.6517   49.8411 H       1  ZINC000269356812    0.1600
     35 H35        -1.3695    1.9958   49.4660 H       1  ZINC000269356812    0.1500
     36 H36         0.4522    0.8621   50.5729 H       1  ZINC000269356812    0.1500
     37 H37        -3.3544    3.5318   53.6620 H       1  ZINC000269356812    0.1700
     38 H38       -10.4288   -0.7884   55.8759 H       1  ZINC000269356812    0.1500
     39 H39        -9.5832   -0.1937   58.2026 H       1  ZINC000269356812    0.1400
     40 H40        -7.8932    1.6987   58.2469 H       1  ZINC000269356812    0.1700
@<TRIPOS>BOND
     1     1     2    1
     2     1    26    1
     3     1    27    1
     4     1    28    1
     5     2     3    1
     6     2     4    1
     7     2    21    1
     8     3    29    1
     9     4     5    1
    10     4    30    1
    11     4    31    1
    12     5     6   am
    13     5    32    1
    14     6     7    2
    15     6     8    1
    16     8     9    2
    17     8    10   am
    18    10    11    1
    19    10    33    1
    20    11    20   ar
    21    11    12   ar
    22    12    13   ar
    23    12    34    1
    24    13    14   ar
    25    13    35    1
    26    14    15    1
    27    14    19   ar
    28    15    16    1
    29    16    17    1
    30    16    18    1
    31    16    36    1
    32    19    20   ar
    33    20    37    1
    34    21    25    1
    35    21    22    2
    36    22    23    1
    37    22    38    1
    38    23    24    2
    39    23    39    1
    40    24    25    1
    41    24    40    1
@<TRIPOS>SUBSTRUCTURE
     1 ZINC000269356812        1 TEMP              0 ****  ****    0 ROOT


##########                                Name:    ZINC000948289723
##########                DOCK_Rotatable_Bonds:                   6
##########                         Heavy_Atoms:                  24
##########                    Molecular_Weight:             331.415
##########                DOCK_Rotatable_Bonds:                   6
##########                       Formal_Charge:           0.0599999
##########                     HBond_Acceptors:                   6
##########                        HBond_Donors:                   1
##########                         Heavy_Atoms:                  24
##########                          Grid_Score:          -30.337456
##########                     Grid_vdw_energy:          -29.909464
##########                      Grid_es_energy:           -0.427992
##########           Internal_energy_repulsive:            7.844779

@<TRIPOS>MOLECULE
ZINC000948289723
 49 52 1 0 0
SMALL
USER_CHARGES


@<TRIPOS>ATOM
      1 C1        -10.5119    1.6983   56.2888 C.3     1  ZINC000948289723   -0.1400
      2 C2        -10.2875    2.3010   54.9005 C.3     1  ZINC000948289723   -0.1100
      3 C3         -8.8119    2.6039   54.5916 C.3     1  ZINC000948289723   -0.1100
      4 C4         -9.0849    2.0861   53.1695 C.3     1  ZINC000948289723   -0.1400
      5 C5         -7.9635    1.2526   52.6050 C.2     1  ZINC000948289723    0.5400
      6 O6         -8.0429    0.0424   52.6150 O.2     1  ZINC000948289723   -0.5300
      7 N7         -6.8723    1.8520   52.0889 N.am    1  ZINC000948289723   -0.6200
      8 C8         -6.6467    3.3028   52.0135 C.3     1  ZINC000948289723    0.1100
      9 C9         -5.2582    3.5181   51.3752 C.3     1  ZINC000948289723   -0.1100
     10 H10        -5.3498    3.6988   50.3042 H       1  ZINC000948289723    0.1000
     11 C11        -4.5226    4.6740   52.0561 C.3     1  ZINC000948289723   -0.1400
     12 C12        -4.5390    2.1699   51.6449 C.3     1  ZINC000948289723    0.1400
     13 H13        -4.1184    2.1458   52.6501 H       1  ZINC000948289723    0.1200
     14 N14        -3.5041    1.9165   50.6394 N.am    1  ZINC000948289723   -0.7100
     15 C15        -2.2327    2.2998   50.8695 C.2     1  ZINC000948289723    0.6100
     16 O16        -1.9443    2.8546   51.9123 O.2     1  ZINC000948289723   -0.5000
     17 C17        -1.1910    2.0463   49.8564 C.2     1  ZINC000948289723   -0.0900
     18 C18         0.1640    2.0971   50.0395 C.2     1  ZINC000948289723   -0.1400
     19 C19         0.6892    1.7764   48.7680 C.2     1  ZINC000948289723    0.0500
     20 C20         2.1457    1.6854   48.3918 C.3     1  ZINC000948289723   -0.0900
     21 C21         2.8843    0.3902   48.7352 C.3     1  ZINC000948289723   -0.1600
     22 C22         2.5286    0.7054   47.2809 C.3     1  ZINC000948289723   -0.1600
     23 N23        -0.3303    1.5746   47.9849 N.2     1  ZINC000948289723   -0.3300
     24 O24        -1.3813    1.7124   48.5660 O.3     1  ZINC000948289723    0.1200
     25 C25        -5.7044    1.1614   51.5122 C.3     1  ZINC000948289723    0.0900
     26 C26       -10.2261    1.2532   53.7766 C.3     1  ZINC000948289723   -0.1200
     27 H27        -9.6956    1.0156   56.5249 H       1  ZINC000948289723    0.0600
     28 H28       -10.5442    2.4964   57.0305 H       1  ZINC000948289723    0.0600
     29 H29       -11.4560    1.1535   56.3002 H       1  ZINC000948289723    0.0600
     30 H30       -10.9595    3.1322   54.6863 H       1  ZINC000948289723    0.0900
     31 H31        -8.5667    3.6653   54.6303 H       1  ZINC000948289723    0.0700
     32 H32        -8.1122    1.9860   55.1545 H       1  ZINC000948289723    0.1000
     33 H33        -9.4254    2.8596   52.4811 H       1  ZINC000948289723    0.1100
     34 H34        -7.4150    3.7659   51.3944 H       1  ZINC000948289723    0.0800
     35 H35        -6.6652    3.7334   53.0147 H       1  ZINC000948289723    0.0800
     36 H36        -4.4152    4.4601   53.1195 H       1  ZINC000948289723    0.0600
     37 H37        -3.5361    4.7914   51.6076 H       1  ZINC000948289723    0.0600
     38 H38        -5.0925    5.5940   51.9264 H       1  ZINC000948289723    0.0700
     39 H39        -3.7340    1.4728   49.8080 H       1  ZINC000948289723    0.4100
     40 H40         0.7056    2.3286   50.9447 H       1  ZINC000948289723    0.1800
     41 H41         2.7071    2.6175   48.4562 H       1  ZINC000948289723    0.1300
     42 H42         3.9318    0.4700   49.0257 H       1  ZINC000948289723    0.1100
     43 H43         2.3168   -0.3960   49.2332 H       1  ZINC000948289723    0.1000
     44 H44         1.7269    0.1267   46.8221 H       1  ZINC000948289723    0.1000
     45 H45         3.3420    0.9926   46.6147 H       1  ZINC000948289723    0.1100
     46 H46        -5.4839    0.2513   52.0701 H       1  ZINC000948289723    0.0900
     47 H47        -5.8876    0.9292   50.4631 H       1  ZINC000948289723    0.0800
     48 H48        -9.9132    0.2660   54.1167 H       1  ZINC000948289723    0.0900
     49 H49       -11.1226    1.2240   53.1574 H       1  ZINC000948289723    0.0800
@<TRIPOS>BOND
     1     1     2    1
     2     1    27    1
     3     1    28    1
     4     1    29    1
     5     2    26    1
     6     2     3    1
     7     2    30    1
     8     3     4    1
     9     3    31    1
    10     3    32    1
    11     4     5    1
    12     4    26    1
    13     4    33    1
    14     5     6    2
    15     5     7   am
    16     7    25    1
    17     7     8    1
    18     8     9    1
    19     8    34    1
    20     8    35    1
    21     9    10    1
    22     9    11    1
    23     9    12    1
    24    11    36    1
    25    11    37    1
    26    11    38    1
    27    12    13    1
    28    12    14    1
    29    12    25    1
    30    14    15   am
    31    14    39    1
    32    15    16    2
    33    15    17    1
    34    17    24    1
    35    17    18    2
    36    18    19    1
    37    18    40    1
    38    19    20    1
    39    19    23    2
    40    20    22    1
    41    20    21    1
    42    20    41    1
    43    21    22    1
    44    21    42    1
    45    21    43    1
    46    22    44    1
    47    22    45    1
    48    23    24    1
    49    25    46    1
    50    25    47    1
    51    26    48    1
    52    26    49    1
@<TRIPOS>SUBSTRUCTURE
     1 ZINC000948289723        1 TEMP              0 ****  ****    0 ROOT


##########                                Name:    ZINC000826435081
##########                DOCK_Rotatable_Bonds:                   7
##########                         Heavy_Atoms:                  28
##########                    Molecular_Weight:             388.361
##########                DOCK_Rotatable_Bonds:                   7
##########                       Formal_Charge:           0.0099996
##########                     HBond_Acceptors:                  12
##########                        HBond_Donors:                   3
##########                         Heavy_Atoms:                  28
##########                          Grid_Score:          -30.307684
##########                     Grid_vdw_energy:          -23.859472
##########                      Grid_es_energy:           -6.448212
##########           Internal_energy_repulsive:            6.825766

@<TRIPOS>MOLECULE
ZINC000826435081
 45 48 1 0 0
SMALL
USER_CHARGES


@<TRIPOS>ATOM
      1 O1         -1.0517    3.2454   59.4339 O.2     1  ZINC000826435081   -0.5700
      2 C2         -0.5781    2.1688   59.1254 C.2     1  ZINC000826435081    0.7200
      3 N3         -0.0879    1.3505   60.0776 N.am    1  ZINC000826435081   -0.7300
      4 C4         -0.1200    1.7608   61.4835 C.3     1  ZINC000826435081    0.1500
      5 C5          0.7668    0.8257   62.3081 C.3     1  ZINC000826435081    0.0400
      6 H6          0.8799    1.2256   63.3158 H       1  ZINC000826435081    0.0800
      7 C7          2.1429    0.7096   61.6462 C.3     1  ZINC000826435081    0.0300
      8 O8          2.9274   -0.2510   62.3595 O.3     1  ZINC000826435081   -0.3800
      9 C9          2.3262   -1.5478   62.4230 C.3     1  ZINC000826435081    0.0200
     10 C10         0.9500   -1.4317   63.0850 C.3     1  ZINC000826435081    0.0200
     11 O11         0.1649   -0.4706   62.3729 O.3     1  ZINC000826435081   -0.3700
     12 N12        -0.5485    1.7913   57.8319 N.am    1  ZINC000826435081   -0.6400
     13 C13        -1.0581    2.6420   56.8420 C.2     1  ZINC000826435081    0.3300
     14 N14        -2.0524    2.3691   56.0301 N.2     1  ZINC000826435081   -0.2800
     15 N15        -2.2518    3.4755   55.1946 N.pl3   1  ZINC000826435081   -0.3300
     16 C16        -3.2185    3.5839   54.1886 C.ar    1  ZINC000826435081    0.2200
     17 C17        -2.9343    3.1544   52.9010 C.ar    1  ZINC000826435081   -0.1300
     18 C18        -3.8892    3.2616   51.9079 C.ar    1  ZINC000826435081   -0.0500
     19 C19        -5.1329    3.7973   52.1895 C.ar    1  ZINC000826435081   -0.1500
     20 C20        -5.4313    4.2301   53.4687 C.ar    1  ZINC000826435081    0.1500
     21 F21        -6.6474    4.7523   53.7398 F       1  ZINC000826435081   -0.1100
     22 C22        -4.4773    4.1207   54.4796 C.ar    1  ZINC000826435081   -0.0500
     23 C23        -4.7911    4.5829   55.8539 C.2     1  ZINC000826435081    0.2100
     24 N24        -5.0388    3.8236   56.9030 N.2     1  ZINC000826435081   -0.2800
     25 N25        -5.2647    4.5997   57.9067 N.pl3   1  ZINC000826435081   -0.2300
     26 N26        -5.1681    5.8260   57.5274 N.2     1  ZINC000826435081   -0.0500
     27 N27        -4.8722    5.8543   56.2723 N.2     1  ZINC000826435081   -0.2300
     28 C28        -1.3413    4.4245   55.5332 C.2     1  ZINC000826435081    0.0700
     29 C29        -0.5969    3.9366   56.5514 C.2     1  ZINC000826435081   -0.2400
     30 H30         0.2862    0.4899   59.8319 H       1  ZINC000826435081    0.4000
     31 H31         0.2482    2.7829   61.5723 H       1  ZINC000826435081    0.0800
     32 H32        -1.1442    1.7102   61.8535 H       1  ZINC000826435081    0.0900
     33 H33         2.0236    0.3867   60.6120 H       1  ZINC000826435081    0.0700
     34 H34         2.6421    1.6782   61.6711 H       1  ZINC000826435081    0.1100
     35 H35         2.2129   -1.9466   61.4149 H       1  ZINC000826435081    0.0600
     36 H36         2.9579   -2.2139   63.0105 H       1  ZINC000826435081    0.1100
     37 H37         0.4509   -2.4003   63.0600 H       1  ZINC000826435081    0.1100
     38 H38         1.0694   -1.1088   64.1191 H       1  ZINC000826435081    0.0600
     39 H39        -0.1744    0.9308   57.5862 H       1  ZINC000826435081    0.4100
     40 H40        -1.9649    2.7357   52.6740 H       1  ZINC000826435081    0.1500
     41 H41        -3.6631    2.9257   50.9066 H       1  ZINC000826435081    0.1500
     42 H42        -5.8734    3.8783   51.4075 H       1  ZINC000826435081    0.1500
     43 H43        -5.4747    4.3058   58.8069 H       1  ZINC000826435081    0.4800
     44 H44        -1.2340    5.3966   55.0749 H       1  ZINC000826435081    0.1800
     45 H45         0.2138    4.4488   57.0482 H       1  ZINC000826435081    0.1800
@<TRIPOS>BOND
     1     1     2    2
     2     2     3   am
     3     2    12   am
     4     3     4    1
     5     3    30    1
     6     4     5    1
     7     4    31    1
     8     4    32    1
     9     5     6    1
    10     5    11    1
    11     5     7    1
    12     7     8    1
    13     7    33    1
    14     7    34    1
    15     8     9    1
    16     9    10    1
    17     9    35    1
    18     9    36    1
    19    10    11    1
    20    10    37    1
    21    10    38    1
    22    12    13    1
    23    12    39    1
    24    13    29    1
    25    13    14    2
    26    14    15    1
    27    15    16    1
    28    15    28    1
    29    16    22   ar
    30    16    17   ar
    31    17    18   ar
    32    17    40    1
    33    18    19   ar
    34    18    41    1
    35    19    20   ar
    36    19    42    1
    37    20    21    1
    38    20    22   ar
    39    22    23    1
    40    23    27    1
    41    23    24    2
    42    24    25    1
    43    25    26    1
    44    25    43    1
    45    26    27    2
    46    28    29    2
    47    28    44    1
    48    29    45    1
@<TRIPOS>SUBSTRUCTURE
     1 ZINC000826435081        1 TEMP              0 ****  ****    0 ROOT


##########                                Name:    ZINC001341052241
##########                DOCK_Rotatable_Bonds:                   7
##########                         Heavy_Atoms:                  24
##########                    Molecular_Weight:             336.478
##########                DOCK_Rotatable_Bonds:                   7
##########                       Formal_Charge:         5.96046e-08
##########                     HBond_Acceptors:                   6
##########                        HBond_Donors:                   0
##########                         Heavy_Atoms:                  24
##########                          Grid_Score:          -30.300203
##########                     Grid_vdw_energy:          -30.385105
##########                      Grid_es_energy:            0.084901
##########           Internal_energy_repulsive:            8.865395

@<TRIPOS>MOLECULE
ZINC001341052241
 56 58 1 0 0
SMALL
USER_CHARGES


@<TRIPOS>ATOM
      1 C1         -2.9726    4.8213   52.9947 C.3     1  ZINC001341052241   -0.1700
      2 C2         -3.1001    3.3105   53.2005 C.3     1  ZINC001341052241    0.1100
      3 N3         -3.4943    2.6775   51.9396 N.pl3   1  ZINC001341052241   -0.4500
      4 C4         -2.6807    2.3503   50.8904 C.2     1  ZINC001341052241    0.1800
      5 C5         -1.1925    2.5735   50.8107 C.3     1  ZINC001341052241    0.1500
      6 O6         -0.6789    1.9446   49.6349 O.3     1  ZINC001341052241   -0.3700
      7 C7          0.7196    2.1536   49.4276 C.3     1  ZINC001341052241    0.0900
      8 C8          1.1340    1.5400   48.0888 C.3     1  ZINC001341052241   -0.1400
      9 C9          2.6311    1.7639   47.8668 C.3     1  ZINC001341052241   -0.1200
     10 C10         3.4192    1.0999   48.9978 C.3     1  ZINC001341052241   -0.1200
     11 C11         3.0048    1.7134   50.3366 C.3     1  ZINC001341052241   -0.1200
     12 C12         1.5076    1.4896   50.5586 C.3     1  ZINC001341052241   -0.1200
     13 N13        -3.4307    1.8091   49.9726 N.2     1  ZINC001341052241   -0.2600
     14 N14        -4.6523    1.7671   50.3698 N.2     1  ZINC001341052241   -0.3100
     15 C15        -4.7496    2.2924   51.5684 C.2     1  ZINC001341052241    0.3500
     16 N16        -5.9075    2.4256   52.3179 N.3     1  ZINC001341052241   -0.4600
     17 C17        -6.7810    3.4642   51.7570 C.3     1  ZINC001341052241    0.0700
     18 C18        -7.9760    3.6848   52.6873 C.3     1  ZINC001341052241   -0.1100
     19 C19        -8.7471    2.3708   52.8397 C.3     1  ZINC001341052241   -0.0900
     20 C20        -9.9077    2.5696   53.8167 C.3     1  ZINC001341052241    0.0700
     21 O21       -10.6184    1.3391   53.9688 O.3     1  ZINC001341052241   -0.3900
     22 C22       -11.6689    1.1533   53.0181 C.3     1  ZINC001341052241    0.0300
     23 C23        -7.8026    1.2935   53.3798 C.3     1  ZINC001341052241   -0.1100
     24 C24        -6.6126    1.1422   52.4294 C.3     1  ZINC001341052241    0.0700
     25 H25        -2.2241    5.0216   52.2281 H       1  ZINC001341052241    0.0600
     26 H26        -3.9336    5.2273   52.6791 H       1  ZINC001341052241    0.0700
     27 H27        -2.6693    5.2911   53.9304 H       1  ZINC001341052241    0.0800
     28 H28        -3.8560    3.1098   53.9598 H       1  ZINC001341052241    0.0900
     29 H29        -2.1417    2.9060   53.5262 H       1  ZINC001341052241    0.1000
     30 H30        -0.9872    3.6431   50.7697 H       1  ZINC001341052241    0.0900
     31 H31        -0.7132    2.1449   51.6909 H       1  ZINC001341052241    0.0700
     32 H32         0.9295    3.2232   49.4178 H       1  ZINC001341052241    0.0600
     33 H33         0.9240    0.4705   48.0986 H       1  ZINC001341052241    0.0700
     34 H34         0.5726    2.0131   47.2830 H       1  ZINC001341052241    0.0700
     35 H35         2.8412    2.8334   47.8569 H       1  ZINC001341052241    0.0600
     36 H36         2.9264    1.3267   46.9129 H       1  ZINC001341052241    0.0700
     37 H37         4.4859    1.2593   48.8396 H       1  ZINC001341052241    0.0600
     38 H38         3.2092    0.0303   49.0077 H       1  ZINC001341052241    0.0600
     39 H39         3.2148    2.7829   50.3268 H       1  ZINC001341052241    0.0600
     40 H40         3.5662    1.2403   51.1423 H       1  ZINC001341052241    0.0700
     41 H41         1.2123    1.9267   51.5125 H       1  ZINC001341052241    0.0700
     42 H42         1.2976    0.4200   50.5685 H       1  ZINC001341052241    0.0700
     43 H43        -7.1375    3.1485   50.7765 H       1  ZINC001341052241    0.0600
     44 H44        -6.2216    4.3944   51.6577 H       1  ZINC001341052241    0.0800
     45 H45        -8.6321    4.4447   52.2630 H       1  ZINC001341052241    0.0800
     46 H46        -7.6210    4.0139   53.6640 H       1  ZINC001341052241    0.0800
     47 H47        -9.1364    2.0622   51.8695 H       1  ZINC001341052241    0.0800
     48 H48       -10.5823    3.3330   53.4291 H       1  ZINC001341052241    0.0500
     49 H49        -9.5182    2.8862   54.7842 H       1  ZINC001341052241    0.0500
     50 H50       -12.3960    1.9591   53.1179 H       1  ZINC001341052241    0.0400
     51 H51       -12.1591    0.1969   53.2006 H       1  ZINC001341052241    0.0900
     52 H52       -11.2528    1.1619   52.0107 H       1  ZINC001341052241    0.0400
     53 H53        -7.4449    1.5849   54.3674 H       1  ZINC001341052241    0.0700
     54 H54        -8.3349    0.3449   53.4503 H       1  ZINC001341052241    0.0800
     55 H55        -6.9699    0.8374   51.4458 H       1  ZINC001341052241    0.0600
     56 H56        -5.9309    0.3859   52.8185 H       1  ZINC001341052241    0.0800
@<TRIPOS>BOND
     1     1     2    1
     2     1    25    1
     3     1    26    1
     4     1    27    1
     5     2     3    1
     6     2    28    1
     7     2    29    1
     8     3    15    1
     9     3     4    1
    10     4     5    1
    11     4    13    2
    12     5     6    1
    13     5    30    1
    14     5    31    1
    15     6     7    1
    16     7    12    1
    17     7     8    1
    18     7    32    1
    19     8     9    1
    20     8    33    1
    21     8    34    1
    22     9    10    1
    23     9    35    1
    24     9    36    1
    25    10    11    1
    26    10    37    1
    27    10    38    1
    28    11    12    1
    29    11    39    1
    30    11    40    1
    31    12    41    1
    32    12    42    1
    33    13    14    1
    34    14    15    2
    35    15    16    1
    36    16    24    1
    37    16    17    1
    38    17    18    1
    39    17    43    1
    40    17    44    1
    41    18    19    1
    42    18    45    1
    43    18    46    1
    44    19    20    1
    45    19    23    1
    46    19    47    1
    47    20    21    1
    48    20    48    1
    49    20    49    1
    50    21    22    1
    51    22    50    1
    52    22    51    1
    53    22    52    1
    54    23    24    1
    55    23    53    1
    56    23    54    1
    57    24    55    1
    58    24    56    1
@<TRIPOS>SUBSTRUCTURE
     1 ZINC001341052241        1 TEMP              0 ****  ****    0 ROOT


##########                                Name:    ZINC001217683559
##########                DOCK_Rotatable_Bonds:                   3
##########                         Heavy_Atoms:                  25
##########                    Molecular_Weight:             397.234
##########                DOCK_Rotatable_Bonds:                   3
##########                       Formal_Charge:          0.00999987
##########                     HBond_Acceptors:                   7
##########                        HBond_Donors:                   0
##########                         Heavy_Atoms:                  25
##########                          Grid_Score:          -30.287579
##########                     Grid_vdw_energy:          -30.943491
##########                      Grid_es_energy:            0.655912
##########           Internal_energy_repulsive:           27.429564

@<TRIPOS>MOLECULE
ZINC001217683559
 38 42 1 0 0
SMALL
USER_CHARGES


@<TRIPOS>ATOM
      1 Br1         0.4799    1.5782   48.9117 Br      1  ZINC001217683559    0.0100
      2 C2          0.9154    2.8808   50.2114 C.ar    1  ZINC001217683559   -0.1200
      3 C3          2.2042    3.3823   50.2996 C.ar    1  ZINC001217683559   -0.0500
      4 C4          2.4781    4.3364   51.2683 C.ar    1  ZINC001217683559   -0.1500
      5 C5          1.4654    4.7568   52.1117 C.ar    1  ZINC001217683559    0.1200
      6 N6          0.2489    4.2633   52.0066 N.ar    1  ZINC001217683559   -0.4400
      7 C7         -0.0565    3.3545   51.0905 C.ar    1  ZINC001217683559    0.2200
      8 C8         -1.4421    2.8270   51.0098 C.2     1  ZINC001217683559    0.2100
      9 N9         -1.9503    2.1321   50.0249 N.2     1  ZINC001217683559   -0.3300
     10 O10        -3.1061    1.8502   50.2599 O.3     1  ZINC001217683559    0.1000
     11 C11        -3.4651    2.3502   51.4528 C.2     1  ZINC001217683559    0.2300
     12 C12        -4.7883    2.2247   52.0978 C.2     1  ZINC001217683559   -0.0600
     13 C13        -5.5801    1.1439   51.8301 C.2     1  ZINC001217683559    0.1800
     14 N14        -6.7961    1.0209   52.4177 N.pl3   1  ZINC001217683559   -0.2900
     15 N15        -7.8035    0.0487   52.3384 N.2     1  ZINC001217683559   -0.3300
     16 C16        -8.7778    0.4381   53.1260 C.2     1  ZINC001217683559    0.2800
     17 C17       -10.0668   -0.3105   53.3475 C.3     1  ZINC001217683559   -0.0300
     18 C18       -10.2145   -0.8752   54.7703 C.3     1  ZINC001217683559   -0.1200
     19 C19       -11.6927   -0.4575   54.6981 C.3     1  ZINC001217683559   -0.1400
     20 C20       -11.2616    0.6023   53.6706 C.3     1  ZINC001217683559   -0.1200
     21 N21        -8.4555    1.5899   53.6980 N.2     1  ZINC001217683559   -0.5300
     22 C22        -7.2524    1.9726   53.2867 C.2     1  ZINC001217683559    0.2900
     23 C23        -6.4560    3.0965   53.5804 C.2     1  ZINC001217683559   -0.1000
     24 C24        -5.2349    3.2206   52.9980 C.2     1  ZINC001217683559   -0.0200
     25 N25        -2.4073    2.9710   51.9416 N.2     1  ZINC001217683559   -0.4300
     26 H26         2.9779    3.0377   49.6295 H       1  ZINC001217683559    0.1600
     27 H27         3.4725    4.7470   51.3634 H       1  ZINC001217683559    0.1500
     28 H28         1.6754    5.4996   52.8671 H       1  ZINC001217683559    0.1800
     29 H29        -5.2355    0.3828   51.1457 H       1  ZINC001217683559    0.1900
     30 H30       -10.2735   -1.0389   52.5635 H       1  ZINC001217683559    0.1200
     31 H31       -10.0679   -1.9538   54.8293 H       1  ZINC001217683559    0.0700
     32 H32        -9.6421   -0.3277   55.5190 H       1  ZINC001217683559    0.1000
     33 H33       -12.3443   -1.2272   54.2843 H       1  ZINC001217683559    0.0800
     34 H34       -12.0729   -0.0349   55.6281 H       1  ZINC001217683559    0.0800
     35 H35       -10.9754    1.5539   54.1187 H       1  ZINC001217683559    0.0900
     36 H36       -11.9603    0.7168   52.8419 H       1  ZINC001217683559    0.0700
     37 H37        -6.8114    3.8516   54.2659 H       1  ZINC001217683559    0.1700
     38 H38        -4.6136    4.0771   53.2139 H       1  ZINC001217683559    0.1700
@<TRIPOS>BOND
     1     1     2    1
     2     2     7   ar
     3     2     3   ar
     4     3     4   ar
     5     3    26    1
     6     4     5   ar
     7     4    27    1
     8     5     6   ar
     9     5    28    1
    10     6     7   ar
    11     7     8    1
    12     8    25    1
    13     8     9    2
    14     9    10    1
    15    10    11    1
    16    11    12    1
    17    11    25    2
    18    12    24    1
    19    12    13    2
    20    13    14    1
    21    13    29    1
    22    14    22    1
    23    14    15    1
    24    15    16    2
    25    16    17    1
    26    16    21    1
    27    17    20    1
    28    17    18    1
    29    17    30    1
    30    18    19    1
    31    18    31    1
    32    18    32    1
    33    19    20    1
    34    19    33    1
    35    19    34    1
    36    20    35    1
    37    20    36    1
    38    21    22    2
    39    22    23    1
    40    23    24    2
    41    23    37    1
    42    24    38    1
@<TRIPOS>SUBSTRUCTURE
     1 ZINC001217683559        1 TEMP              0 ****  ****    0 ROOT


##########                                Name:    ZINC000065993627
##########                DOCK_Rotatable_Bonds:                   7
##########                         Heavy_Atoms:                  28
##########                    Molecular_Weight:             382.462
##########                DOCK_Rotatable_Bonds:                   7
##########                       Formal_Charge:          -0.0200002
##########                     HBond_Acceptors:                   7
##########                        HBond_Donors:                   2
##########                         Heavy_Atoms:                  28
##########                          Grid_Score:          -30.282450
##########                     Grid_vdw_energy:          -31.517942
##########                      Grid_es_energy:            1.235492
##########           Internal_energy_repulsive:           18.245640

@<TRIPOS>MOLECULE
ZINC000065993627
 54 56 1 0 0
SMALL
USER_CHARGES


@<TRIPOS>ATOM
      1 C1         -0.8099    4.0308   52.7426 C.3     1  ZINC000065993627   -0.1200
      2 C2         -0.8335    3.2360   51.4625 C.ar    1  ZINC000065993627   -0.0700
      3 C3          0.3324    2.6832   50.9718 C.ar    1  ZINC000065993627   -0.1800
      4 C4          0.3107    1.9506   49.7918 C.ar    1  ZINC000065993627    0.2000
      5 N5          1.4921    1.3899   49.2945 N.pl3   1  ZINC000065993627   -0.6400
      6 C6          2.0814    1.9030   48.0552 C.3     1  ZINC000065993627    0.1000
      7 C7          2.1401    0.2899   50.0131 C.3     1  ZINC000065993627    0.0900
      8 C8         -0.8839    1.7744   49.1062 C.ar    1  ZINC000065993627   -0.1800
      9 C9         -2.0499    2.3276   49.5975 C.ar    1  ZINC000065993627   -0.0800
     10 C10        -2.0289    3.0549   50.7797 C.ar    1  ZINC000065993627    0.1100
     11 N11        -3.2129    3.6160   51.2785 N.am    1  ZINC000065993627   -0.6800
     12 C12        -4.3571    2.9040   51.2576 C.2     1  ZINC000065993627    0.7000
     13 O13        -4.3625    1.7750   50.8061 O.2     1  ZINC000065993627   -0.5700
     14 N14        -5.4953    3.4435   51.7371 N.am    1  ZINC000065993627   -0.7400
     15 C15        -6.7386    2.6689   51.7161 C.3     1  ZINC000065993627    0.2100
     16 H16        -6.5744    1.7326   51.1828 H       1  ZINC000065993627    0.1000
     17 C17        -7.8295    3.4747   51.0078 C.3     1  ZINC000065993627   -0.1600
     18 C18        -7.1703    2.3732   53.1293 C.ar    1  ZINC000065993627   -0.1200
     19 C19        -6.7883    3.2149   54.1578 C.ar    1  ZINC000065993627   -0.0800
     20 C20        -7.1821    2.9465   55.4542 C.ar    1  ZINC000065993627   -0.1500
     21 C21        -7.9626    1.8302   55.7241 C.ar    1  ZINC000065993627    0.1800
     22 N22        -8.3638    1.5556   57.0365 N.am    1  ZINC000065993627   -0.5700
     23 C23        -9.7296    1.2096   57.4588 C.3     1  ZINC000065993627    0.0600
     24 C24        -9.6043    1.0142   58.9821 C.3     1  ZINC000065993627    0.0400
     25 O25        -8.1958    1.2681   59.2556 O.3     1  ZINC000065993627   -0.3200
     26 C26        -7.5650    1.5598   58.1124 C.2     1  ZINC000065993627    0.6400
     27 O27        -6.3782    1.8140   58.0563 O.2     1  ZINC000065993627   -0.5000
     28 C28        -8.3446    0.9869   54.6890 C.ar    1  ZINC000065993627   -0.1500
     29 C29        -7.9521    1.2638   53.3940 C.ar    1  ZINC000065993627   -0.0800
     30 H30        -0.9806    3.3638   53.5877 H       1  ZINC000065993627    0.0700
     31 H31         0.1605    4.5148   52.8520 H       1  ZINC000065993627    0.0700
     32 H32        -1.5928    4.7887   52.7142 H       1  ZINC000065993627    0.0600
     33 H33         1.2615    2.8207   51.5050 H       1  ZINC000065993627    0.1200
     34 H34         2.7774    2.7083   48.2900 H       1  ZINC000065993627    0.0500
     35 H35         2.6138    1.0995   47.5461 H       1  ZINC000065993627    0.0700
     36 H36         1.2914    2.2829   47.4073 H       1  ZINC000065993627    0.0700
     37 H37         1.5159   -0.0124   50.8539 H       1  ZINC000065993627    0.0800
     38 H38         2.2750   -0.5553   49.3382 H       1  ZINC000065993627    0.0500
     39 H39         3.1117    0.6191   50.3817 H       1  ZINC000065993627    0.0500
     40 H40        -0.9010    1.2051   48.1886 H       1  ZINC000065993627    0.1300
     41 H41        -2.9791    2.1906   49.0642 H       1  ZINC000065993627    0.1500
     42 H42        -3.2086    4.5166   51.6387 H       1  ZINC000065993627    0.4000
     43 H43        -5.4913    4.3446   52.0961 H       1  ZINC000065993627    0.4000
     44 H44        -7.5174    3.6886   49.9856 H       1  ZINC000065993627    0.0700
     45 H45        -8.7546    2.8985   50.9921 H       1  ZINC000065993627    0.0700
     46 H46        -7.9938    4.4111   51.5410 H       1  ZINC000065993627    0.0600
     47 H47        -6.1809    4.0828   53.9473 H       1  ZINC000065993627    0.1300
     48 H48        -6.8832    3.6040   56.2570 H       1  ZINC000065993627    0.1600
     49 H49       -10.4182    2.0237   57.2326 H       1  ZINC000065993627    0.1000
     50 H50       -10.0561    0.2865   56.9800 H       1  ZINC000065993627    0.1000
     51 H51       -10.2316    1.7308   59.5122 H       1  ZINC000065993627    0.1100
     52 H52        -9.8696   -0.0059   59.2596 H       1  ZINC000065993627    0.1100
     53 H53        -8.9512    0.1177   54.8958 H       1  ZINC000065993627    0.1300
     54 H54        -8.2491    0.6085   52.5886 H       1  ZINC000065993627    0.1300
@<TRIPOS>BOND
     1     1     2    1
     2     1    30    1
     3     1    31    1
     4     1    32    1
     5     2    10   ar
     6     2     3   ar
     7     3     4   ar
     8     3    33    1
     9     4     5    1
    10     4     8   ar
    11     5     6    1
    12     5     7    1
    13     6    34    1
    14     6    35    1
    15     6    36    1
    16     7    37    1
    17     7    38    1
    18     7    39    1
    19     8     9   ar
    20     8    40    1
    21     9    10   ar
    22     9    41    1
    23    10    11    1
    24    11    12   am
    25    11    42    1
    26    12    13    2
    27    12    14   am
    28    14    15    1
    29    14    43    1
    30    15    16    1
    31    15    17    1
    32    15    18    1
    33    17    44    1
    34    17    45    1
    35    17    46    1
    36    18    29   ar
    37    18    19   ar
    38    19    20   ar
    39    19    47    1
    40    20    21   ar
    41    20    48    1
    42    21    22    1
    43    21    28   ar
    44    22    26   am
    45    22    23    1
    46    23    24    1
    47    23    49    1
    48    23    50    1
    49    24    25    1
    50    24    51    1
    51    24    52    1
    52    25    26    1
    53    26    27    2
    54    28    29   ar
    55    28    53    1
    56    29    54    1
@<TRIPOS>SUBSTRUCTURE
     1 ZINC000065993627        1 TEMP              0 ****  ****    0 ROOT


##########                                Name:    ZINC000195331548
##########                DOCK_Rotatable_Bonds:                   7
##########                         Heavy_Atoms:                  26
##########                    Molecular_Weight:             378.539
##########                DOCK_Rotatable_Bonds:                   7
##########                       Formal_Charge:          -0.0100004
##########                     HBond_Acceptors:                   7
##########                        HBond_Donors:                   2
##########                         Heavy_Atoms:                  26
##########                          Grid_Score:          -30.277769
##########                     Grid_vdw_energy:          -30.236349
##########                      Grid_es_energy:           -0.041420
##########           Internal_energy_repulsive:           26.153591

@<TRIPOS>MOLECULE
ZINC000195331548
 56 58 1 0 0
SMALL
USER_CHARGES


@<TRIPOS>ATOM
      1 C1        -11.0537    0.8963   54.0038 C.3     1  ZINC000195331548   -0.0800
      2 C2         -9.6936    0.6355   53.4097 C.2     1  ZINC000195331548    0.0700
      3 C3         -9.3605   -0.5319   52.8507 C.2     1  ZINC000195331548   -0.2600
      4 S4         -7.6973   -0.4063   52.2830 S.3     1  ZINC000195331548    0.1100
      5 C5         -7.6123    1.2005   52.8611 C.2     1  ZINC000195331548    0.0600
      6 C6         -6.4030    2.0933   52.7529 C.3     1  ZINC000195331548   -0.0100
      7 H7         -5.7932    1.9913   53.6507 H       1  ZINC000195331548    0.1100
      8 C8         -6.8540    3.5490   52.6038 C.3     1  ZINC000195331548   -0.1200
      9 C9         -5.6217    4.4420   52.4344 C.3     1  ZINC000195331548   -0.1100
     10 C10        -4.8206    3.9720   51.2181 C.3     1  ZINC000195331548    0.0500
     11 N11        -4.4120    2.5746   51.4097 N.3     1  ZINC000195331548   -0.5200
     12 C12        -3.5244    2.1324   50.3258 C.3     1  ZINC000195331548    0.0400
     13 C13        -2.1181    2.5940   50.6083 C.2     1  ZINC000195331548    0.5100
     14 O14        -1.9050    3.3677   51.5170 O.2     1  ZINC000195331548   -0.4400
     15 N15        -1.0970    2.1467   49.8507 N.am    1  ZINC000195331548   -0.7000
     16 C16         0.1606    2.5608   50.1023 C.2     1  ZINC000195331548    0.6900
     17 O17         0.3739    3.3387   51.0115 O.2     1  ZINC000195331548   -0.5300
     18 N18         1.1819    2.1122   49.3459 N.am    1  ZINC000195331548   -0.7300
     19 C19         2.5492    2.5610   49.6205 C.3     1  ZINC000195331548    0.1700
     20 H20         2.5919    3.0096   50.6130 H       1  ZINC000195331548    0.0900
     21 C21         2.9659    3.5967   48.5743 C.3     1  ZINC000195331548   -0.1300
     22 C22         2.9059    2.9669   47.1812 C.3     1  ZINC000195331548   -0.1200
     23 C23         3.8572    1.7701   47.1212 C.3     1  ZINC000195331548   -0.1200
     24 C24         3.4406    0.7344   48.1674 C.3     1  ZINC000195331548   -0.1100
     25 C25         3.5005    1.3642   49.5605 C.3     1  ZINC000195331548   -0.1000
     26 H26         4.5178    1.6981   49.7648 H       1  ZINC000195331548    0.0900
     27 C27         3.0837    0.3285   50.6067 C.3     1  ZINC000195331548   -0.1500
     28 C28        -5.5792    1.6915   51.5274 C.3     1  ZINC000195331548    0.0600
     29 N29        -8.7351    1.5399   53.3985 N.2     1  ZINC000195331548   -0.4700
     30 H30       -11.7141    1.3000   53.2363 H       1  ZINC000195331548    0.0800
     31 H31       -11.4684   -0.0366   54.3857 H       1  ZINC000195331548    0.0800
     32 H32       -10.9626    1.6141   54.8190 H       1  ZINC000195331548    0.0800
     33 H33        -9.9993   -1.3979   52.7597 H       1  ZINC000195331548    0.1800
     34 H34        -7.4957    3.6436   51.7279 H       1  ZINC000195331548    0.0600
     35 H35        -7.4053    3.8525   53.4938 H       1  ZINC000195331548    0.0700
     36 H36        -5.9381    5.4742   52.2851 H       1  ZINC000195331548    0.0800
     37 H37        -4.9996    4.3770   53.3271 H       1  ZINC000195331548    0.0800
     38 H38        -3.9349    4.5969   51.1030 H       1  ZINC000195331548    0.0800
     39 H39        -5.4388    4.0503   50.3238 H       1  ZINC000195331548    0.0400
     40 H40        -3.8639    2.5584   49.3816 H       1  ZINC000195331548    0.1200
     41 H41        -3.5437    1.0444   50.2614 H       1  ZINC000195331548    0.0700
     42 H42        -1.2673    1.5268   49.1244 H       1  ZINC000195331548    0.4100
     43 H43         1.0116    1.4922   48.6195 H       1  ZINC000195331548    0.4000
     44 H44         3.9832    3.9306   48.7787 H       1  ZINC000195331548    0.0700
     45 H45         2.2882    4.4494   48.6171 H       1  ZINC000195331548    0.0700
     46 H46         3.2029    3.7048   46.4358 H       1  ZINC000195331548    0.0600
     47 H47         1.8887    2.6331   46.9768 H       1  ZINC000195331548    0.0600
     48 H48         3.8146    1.3215   46.1287 H       1  ZINC000195331548    0.0600
     49 H49         4.8745    2.1041   47.3256 H       1  ZINC000195331548    0.0600
     50 H50         2.4233    0.4006   47.9630 H       1  ZINC000195331548    0.0600
     51 H51         4.1183   -0.1182   48.1247 H       1  ZINC000195331548    0.0700
     52 H52         2.0665   -0.0054   50.4024 H       1  ZINC000195331548    0.0500
     53 H53         3.7615   -0.5241   50.5640 H       1  ZINC000195331548    0.0600
     54 H54         3.1264    0.7771   51.5992 H       1  ZINC000195331548    0.0600
     55 H55        -6.1938    1.7805   50.6316 H       1  ZINC000195331548    0.0400
     56 H56        -5.2445    0.6599   51.6371 H       1  ZINC000195331548    0.0900
@<TRIPOS>BOND
     1     1     2    1
     2     1    30    1
     3     1    31    1
     4     1    32    1
     5     2    29    1
     6     2     3    2
     7     3     4    1
     8     3    33    1
     9     4     5    1
    10     5     6    1
    11     5    29    2
    12     6     7    1
    13     6    28    1
    14     6     8    1
    15     8     9    1
    16     8    34    1
    17     8    35    1
    18     9    10    1
    19     9    36    1
    20     9    37    1
    21    10    11    1
    22    10    38    1
    23    10    39    1
    24    11    12    1
    25    11    28    1
    26    12    13    1
    27    12    40    1
    28    12    41    1
    29    13    14    2
    30    13    15   am
    31    15    16   am
    32    15    42    1
    33    16    17    2
    34    16    18   am
    35    18    19    1
    36    18    43    1
    37    19    20    1
    38    19    25    1
    39    19    21    1
    40    21    22    1
    41    21    44    1
    42    21    45    1
    43    22    23    1
    44    22    46    1
    45    22    47    1
    46    23    24    1
    47    23    48    1
    48    23    49    1
    49    24    25    1
    50    24    50    1
    51    24    51    1
    52    25    26    1
    53    25    27    1
    54    27    52    1
    55    27    53    1
    56    27    54    1
    57    28    55    1
    58    28    56    1
@<TRIPOS>SUBSTRUCTURE
     1 ZINC000195331548        1 TEMP              0 ****  ****    0 ROOT


##########                                Name:    ZINC000062882109
##########                DOCK_Rotatable_Bonds:                   8
##########                         Heavy_Atoms:                  31
##########                    Molecular_Weight:             424.497
##########                DOCK_Rotatable_Bonds:                   8
##########                       Formal_Charge:           0.0299993
##########                     HBond_Acceptors:                   7
##########                        HBond_Donors:                   1
##########                         Heavy_Atoms:                  31
##########                          Grid_Score:          -30.270725
##########                     Grid_vdw_energy:          -31.118465
##########                      Grid_es_energy:            0.847740
##########           Internal_energy_repulsive:          183.633469

@<TRIPOS>MOLECULE
ZINC000062882109
 59 61 1 0 0
SMALL
USER_CHARGES


@<TRIPOS>ATOM
      1 C1        -11.5843    0.5791   52.6447 C.3     1  ZINC000062882109   -0.2000
      2 C2        -10.0959    0.5109   52.8708 C.2     1  ZINC000062882109    0.3900
      3 O3         -9.5984   -0.4930   53.3343 O.2     1  ZINC000062882109   -0.4500
      4 C4         -9.2461    1.6630   52.5289 C.ar    1  ZINC000062882109   -0.1300
      5 C5         -9.8130    2.8118   51.9680 C.ar    1  ZINC000062882109   -0.1100
      6 C6         -9.0126    3.8890   51.6493 C.ar    1  ZINC000062882109   -0.0900
      7 C7         -7.6504    3.8376   51.8823 C.ar    1  ZINC000062882109   -0.1800
      8 C8         -7.0772    2.7013   52.4387 C.ar    1  ZINC000062882109    0.1200
      9 O9         -5.7377    2.6578   52.6649 O.3     1  ZINC000062882109   -0.2800
     10 C10        -4.8830    2.9516   51.5580 C.3     1  ZINC000062882109    0.0700
     11 H11        -5.1725    3.9061   51.1187 H       1  ZINC000062882109    0.1000
     12 C12        -5.0113    1.8468   50.5074 C.3     1  ZINC000062882109   -0.1800
     13 C13        -3.4549    3.0296   52.0330 C.2     1  ZINC000062882109    0.5200
     14 O14        -3.1728    2.6947   53.1641 O.2     1  ZINC000062882109   -0.4900
     15 N15        -2.4912    3.4716   51.2009 N.am    1  ZINC000062882109   -0.6600
     16 C16        -1.1636    3.5442   51.6424 C.ar    1  ZINC000062882109    0.1400
     17 C17        -0.8621    4.1859   52.8360 C.ar    1  ZINC000062882109   -0.1000
     18 C18         0.4462    4.2611   53.2741 C.ar    1  ZINC000062882109   -0.1100
     19 C19         1.4657    3.6957   52.5229 C.ar    1  ZINC000062882109    0.0800
     20 O20         2.7503    3.7840   52.9604 O.3     1  ZINC000062882109   -0.3100
     21 C21         3.6983    2.8522   52.4346 C.3     1  ZINC000062882109    0.0500
     22 C22         3.5810    2.8373   50.9038 C.3     1  ZINC000062882109    0.0400
     23 N23         2.1947    2.4708   50.5672 N.am    1  ZINC000062882109   -0.5500
     24 C24         1.9245    1.6105   49.5655 C.2     1  ZINC000062882109    0.5300
     25 O25         0.7750    1.3234   49.3062 O.2     1  ZINC000062882109   -0.5100
     26 C26         3.0508    1.0055   48.7676 C.3     1  ZINC000062882109   -0.0800
     27 C27         2.4741    0.1954   47.6047 C.3     1  ZINC000062882109   -0.1300
     28 C28         3.9436    2.1204   48.2192 C.3     1  ZINC000062882109   -0.1600
     29 C29         3.8779    0.0864   49.6688 C.3     1  ZINC000062882109   -0.1500
     30 C30         1.1633    3.0488   51.3272 C.ar    1  ZINC000062882109    0.1000
     31 C31        -0.1481    2.9696   50.8895 C.ar    1  ZINC000062882109   -0.1400
     32 C32        -7.8697    1.6159   52.7689 C.ar    1  ZINC000062882109   -0.0900
     33 H33       -12.0422   -0.3602   52.9548 H       1  ZINC000062882109    0.0900
     34 H34       -12.0035    1.3981   53.2291 H       1  ZINC000062882109    0.1000
     35 H35       -11.7837    0.7485   51.5865 H       1  ZINC000062882109    0.1000
     36 H36       -10.8763    2.8553   51.7843 H       1  ZINC000062882109    0.1400
     37 H37        -9.4511    4.7756   51.2158 H       1  ZINC000062882109    0.1300
     38 H38        -7.0296    4.6845   51.6305 H       1  ZINC000062882109    0.1300
     39 H39        -6.0443    1.7903   50.1639 H       1  ZINC000062882109    0.0800
     40 H40        -4.3594    2.0709   49.6630 H       1  ZINC000062882109    0.0800
     41 H41        -4.7218    0.8922   50.9466 H       1  ZINC000062882109    0.0800
     42 H42        -2.7168    3.7394   50.2963 H       1  ZINC000062882109    0.4100
     43 H43        -1.6528    4.6278   53.4241 H       1  ZINC000062882109    0.1400
     44 H44         0.6755    4.7616   54.2031 H       1  ZINC000062882109    0.1400
     45 H45         4.7055    3.1549   52.7209 H       1  ZINC000062882109    0.1300
     46 H46         3.4886    1.8571   52.8268 H       1  ZINC000062882109    0.0700
     47 H47         3.8093    3.8260   50.5057 H       1  ZINC000062882109    0.0900
     48 H48         4.2696    2.1020   50.4872 H       1  ZINC000062882109    0.1300
     49 H49         1.8849    0.8501   46.9627 H       1  ZINC000062882109    0.0600
     50 H50         3.2888   -0.2422   47.0276 H       1  ZINC000062882109    0.0700
     51 H51         1.8381   -0.5989   47.9954 H       1  ZINC000062882109    0.0700
     52 H52         4.3544    2.6975   49.0475 H       1  ZINC000062882109    0.0700
     53 H53         4.7581    1.6828   47.6421 H       1  ZINC000062882109    0.0800
     54 H54         3.3543    2.7751   47.5772 H       1  ZINC000062882109    0.0600
     55 H55         3.3028   -0.8104   49.8989 H       1  ZINC000062882109    0.0700
     56 H56         4.7979   -0.1936   49.1556 H       1  ZINC000062882109    0.0800
     57 H57         4.1224    0.6087   50.5937 H       1  ZINC000062882109    0.0700
     58 H58        -0.3800    2.4661   49.9625 H       1  ZINC000062882109    0.1800
     59 H59        -7.4250    0.7320   53.2019 H       1  ZINC000062882109    0.1400
@<TRIPOS>BOND
     1     1     2    1
     2     1    33    1
     3     1    34    1
     4     1    35    1
     5     2     3    2
     6     2     4    1
     7     4    32   ar
     8     4     5   ar
     9     5     6   ar
    10     5    36    1
    11     6     7   ar
    12     6    37    1
    13     7     8   ar
    14     7    38    1
    15     8     9    1
    16     8    32   ar
    17     9    10    1
    18    10    11    1
    19    10    12    1
    20    10    13    1
    21    12    39    1
    22    12    40    1
    23    12    41    1
    24    13    14    2
    25    13    15   am
    26    15    16    1
    27    15    42    1
    28    16    31   ar
    29    16    17   ar
    30    17    18   ar
    31    17    43    1
    32    18    19   ar
    33    18    44    1
    34    19    30   ar
    35    19    20    1
    36    20    21    1
    37    21    22    1
    38    21    45    1
    39    21    46    1
    40    22    23    1
    41    22    47    1
    42    22    48    1
    43    23    24   am
    44    23    30    1
    45    24    25    2
    46    24    26    1
    47    26    27    1
    48    26    28    1
    49    26    29    1
    50    27    49    1
    51    27    50    1
    52    27    51    1
    53    28    52    1
    54    28    53    1
    55    28    54    1
    56    29    55    1
    57    29    56    1
    58    29    57    1
    59    30    31   ar
    60    31    58    1
    61    32    59    1
@<TRIPOS>SUBSTRUCTURE
     1 ZINC000062882109        1 TEMP              0 ****  ****    0 ROOT


##########                                Name:    ZINC001079355651
##########                DOCK_Rotatable_Bonds:                   5
##########                         Heavy_Atoms:                  25
##########                    Molecular_Weight:             353.851
##########                DOCK_Rotatable_Bonds:                   5
##########                       Formal_Charge:           0.0199997
##########                     HBond_Acceptors:                   5
##########                        HBond_Donors:                   1
##########                         Heavy_Atoms:                  25
##########                          Grid_Score:          -30.270117
##########                     Grid_vdw_energy:          -27.905363
##########                      Grid_es_energy:           -2.364754
##########           Internal_energy_repulsive:            4.461448

@<TRIPOS>MOLECULE
ZINC001079355651
 45 47 1 0 0
SMALL
USER_CHARGES


@<TRIPOS>ATOM
      1 C1          2.9221    3.2006   57.2076 C.3     1  ZINC001079355651   -0.1500
      2 C2          1.6094    2.4347   57.3846 C.3     1  ZINC001079355651   -0.1000
      3 H3          1.7580    1.3760   57.1726 H       1  ZINC001079355651    0.0900
      4 C4          0.5191    3.0187   56.4608 C.3     1  ZINC001079355651    0.0300
      5 N5         -0.7303    2.9415   57.2608 N.3     1  ZINC001079355651   -0.5100
      6 C6         -1.7397    3.8799   56.7527 C.3     1  ZINC001079355651    0.1600
      7 C7         -2.0392    3.5643   55.3464 C.1     1  ZINC001079355651   -0.1400
      8 C8         -2.2780    3.3126   54.2249 C.1     1  ZINC001079355651   -0.1300
      9 C9         -2.5694    3.0056   52.8569 C.ar    1  ZINC001079355651    0.0300
     10 C10        -1.5370    2.9256   51.9218 C.ar    1  ZINC001079355651   -0.0900
     11 C11        -1.8237    2.6295   50.6047 C.ar    1  ZINC001079355651   -0.1000
     12 C12        -3.1313    2.4120   50.2103 C.ar    1  ZINC001079355651   -0.1000
     13 C13        -4.1610    2.4902   51.1329 C.ar    1  ZINC001079355651   -0.0300
     14 Cl14       -5.7993    2.2162   50.6282 Cl      1  ZINC001079355651   -0.0600
     15 C15        -3.8864    2.7797   52.4548 C.ar    1  ZINC001079355651   -0.0900
     16 C16        -0.3062    3.3090   58.6363 C.3     1  ZINC001079355651    0.0200
     17 C17         1.0678    2.6235   58.8166 C.3     1  ZINC001079355651    0.1500
     18 H18         1.7369    3.2624   59.3931 H       1  ZINC001079355651    0.1000
     19 N19         0.9067    1.3272   59.4800 N.am    1  ZINC001079355651   -0.7100
     20 C20         1.0881    1.2246   60.8116 C.2     1  ZINC001079355651    0.5600
     21 O21         1.3839    2.2074   61.4621 O.2     1  ZINC001079355651   -0.5300
     22 C22         0.9268   -0.0867   61.4821 C.ar    1  ZINC001079355651   -0.0900
     23 C23         1.3452   -0.2746   62.8029 C.ar    1  ZINC001079355651   -0.1400
     24 C24         1.1757   -1.5139   63.3892 C.ar    1  ZINC001079355651    0.1000
     25 N25         0.6288   -2.5098   62.7210 N.ar    1  ZINC001079355651   -0.4700
     26 C26         0.2208   -2.3753   61.4748 C.ar    1  ZINC001079355651    0.1000
     27 C27         0.3467   -1.1689   60.8135 C.ar    1  ZINC001079355651   -0.1200
     28 H28         3.6668    2.8104   57.9012 H       1  ZINC001079355651    0.0600
     29 H29         3.2787    3.0786   56.1849 H       1  ZINC001079355651    0.0700
     30 H30         2.7556    4.2586   57.4105 H       1  ZINC001079355651    0.0600
     31 H31         0.7473    4.0550   56.2113 H       1  ZINC001079355651    0.0600
     32 H32         0.4279    2.4198   55.5546 H       1  ZINC001079355651    0.0900
     33 H33        -2.6495    3.7916   57.3466 H       1  ZINC001079355651    0.0700
     34 H34        -1.3573    4.8982   56.8231 H       1  ZINC001079355651    0.1100
     35 H35        -0.5154    3.0956   52.2280 H       1  ZINC001079355651    0.1300
     36 H36        -1.0251    2.5678   49.8803 H       1  ZINC001079355651    0.1400
     37 H37        -3.3503    2.1806   49.1783 H       1  ZINC001079355651    0.1400
     38 H38        -4.6899    2.8404   53.1738 H       1  ZINC001079355651    0.1400
     39 H39        -0.2072    4.3907   58.7273 H       1  ZINC001079355651    0.0600
     40 H40        -1.0188    2.9287   59.3682 H       1  ZINC001079355651    0.0900
     41 H41         0.6694    0.5429   58.9609 H       1  ZINC001079355651    0.4000
     42 H42         1.7944    0.5368   63.3563 H       1  ZINC001079355651    0.1400
     43 H43         1.4960   -1.6690   64.4090 H       1  ZINC001079355651    0.1600
     44 H44        -0.2216   -3.2185   60.9652 H       1  ZINC001079355651    0.1700
     45 H45         0.0103   -1.0660   59.7923 H       1  ZINC001079355651    0.1500
@<TRIPOS>BOND
     1     1     2    1
     2     1    28    1
     3     1    29    1
     4     1    30    1
     5     2     3    1
     6     2    17    1
     7     2     4    1
     8     4     5    1
     9     4    31    1
    10     4    32    1
    11     5     6    1
    12     5    16    1
    13     6     7    1
    14     6    33    1
    15     6    34    1
    16     7     8    3
    17     8     9    1
    18     9    15   ar
    19     9    10   ar
    20    10    11   ar
    21    10    35    1
    22    11    12   ar
    23    11    36    1
    24    12    13   ar
    25    12    37    1
    26    13    14    1
    27    13    15   ar
    28    15    38    1
    29    16    17    1
    30    16    39    1
    31    16    40    1
    32    17    18    1
    33    17    19    1
    34    19    20   am
    35    19    41    1
    36    20    21    2
    37    20    22    1
    38    22    27   ar
    39    22    23   ar
    40    23    24   ar
    41    23    42    1
    42    24    25   ar
    43    24    43    1
    44    25    26   ar
    45    26    27   ar
    46    26    44    1
    47    27    45    1
@<TRIPOS>SUBSTRUCTURE
     1 ZINC001079355651        1 TEMP              0 ****  ****    0 ROOT


##########                                Name:    ZINC000623581528
##########                DOCK_Rotatable_Bonds:                   5
##########                         Heavy_Atoms:                  26
##########                    Molecular_Weight:             355.369
##########                DOCK_Rotatable_Bonds:                   5
##########                       Formal_Charge:        -4.47035e-07
##########                     HBond_Acceptors:                   7
##########                        HBond_Donors:                   2
##########                         Heavy_Atoms:                  26
##########                          Grid_Score:          -30.262609
##########                     Grid_vdw_energy:          -28.439028
##########                      Grid_es_energy:           -1.823582
##########           Internal_energy_repulsive:            3.216789

@<TRIPOS>MOLECULE
ZINC000623581528
 44 47 1 0 0
SMALL
USER_CHARGES


@<TRIPOS>ATOM
      1 C1         -0.6971    3.9102   52.5538 C.3     1  ZINC000623581528    0.1000
      2 N2         -1.6014    3.2332   51.6209 N.am    1  ZINC000623581528   -0.5500
      3 C3         -1.2466    2.5974   50.4868 C.2     1  ZINC000623581528    0.6300
      4 O4         -0.1103    2.4916   50.0672 O.2     1  ZINC000623581528   -0.4800
      5 O5         -2.3420    2.0991   49.8922 O.3     1  ZINC000623581528   -0.2300
      6 C6         -3.4320    2.4064   50.6372 C.ar    1  ZINC000623581528    0.0400
      7 C7         -4.7841    2.1424   50.4875 C.ar    1  ZINC000623581528   -0.0800
      8 C8         -5.6834    2.5950   51.4337 C.ar    1  ZINC000623581528   -0.0900
      9 C9         -5.2407    3.3120   52.5312 C.ar    1  ZINC000623581528   -0.0900
     10 C10        -6.2296    3.8014   53.5577 C.3     1  ZINC000623581528    0.1800
     11 N11        -6.4862    2.7395   54.5338 N.am    1  ZINC000623581528   -0.7400
     12 C12        -7.6220    2.7511   55.2592 C.2     1  ZINC000623581528    0.7100
     13 O13        -8.4330    3.6437   55.1047 O.2     1  ZINC000623581528   -0.5800
     14 N14        -7.8587    1.7732   56.1560 N.am    1  ZINC000623581528   -0.7300
     15 C15        -9.0942    1.7849   56.9433 C.3     1  ZINC000623581528    0.2000
     16 H16        -9.8721    2.3380   56.4171 H       1  ZINC000623581528    0.1000
     17 C17        -8.8388    2.4095   58.3315 C.3     1  ZINC000623581528   -0.1300
     18 C18        -8.5108    1.1734   59.1957 C.3     1  ZINC000623581528   -0.0800
     19 C19        -9.2163    0.0180   58.5185 C.ar    1  ZINC000623581528   -0.1000
     20 C20        -9.5389   -1.2406   58.9974 C.ar    1  ZINC000623581528   -0.0800
     21 C21       -10.1948   -2.1463   58.1869 C.ar    1  ZINC000623581528   -0.1400
     22 C22       -10.5310   -1.7955   56.8907 C.ar    1  ZINC000623581528    0.0900
     23 F23       -11.1731   -2.6789   56.0953 F       1  ZINC000623581528   -0.1400
     24 C24       -10.2086   -0.5382   56.4111 C.ar    1  ZINC000623581528   -0.1200
     25 C25        -9.5530    0.3695   57.2216 C.ar    1  ZINC000623581528   -0.0900
     26 C26        -3.8944    3.5802   52.6889 C.ar    1  ZINC000623581528   -0.0800
     27 C27        -2.9859    3.1238   51.7474 C.ar    1  ZINC000623581528    0.0700
     28 H28        -0.3557    3.2011   53.3080 H       1  ZINC000623581528    0.0800
     29 H29         0.1615    4.3016   52.0081 H       1  ZINC000623581528    0.0900
     30 H30        -1.2241    4.7315   53.0394 H       1  ZINC000623581528    0.0900
     31 H31        -5.1344    1.5838   49.6323 H       1  ZINC000623581528    0.1500
     32 H32        -6.7369    2.3886   51.3159 H       1  ZINC000623581528    0.1500
     33 H33        -5.8215    4.6736   54.0685 H       1  ZINC000623581528    0.0800
     34 H34        -7.1621    4.0733   53.0631 H       1  ZINC000623581528    0.0800
     35 H35        -5.8386    2.0280   54.6578 H       1  ZINC000623581528    0.4000
     36 H36        -7.2112    1.0618   56.2802 H       1  ZINC000623581528    0.4000
     37 H37        -7.9917    3.0946   58.2980 H       1  ZINC000623581528    0.0900
     38 H38        -9.7321    2.9137   58.6997 H       1  ZINC000623581528    0.0900
     39 H39        -7.4348    1.0004   59.2154 H       1  ZINC000623581528    0.0800
     40 H40        -8.8916    1.3081   60.2081 H       1  ZINC000623581528    0.0800
     41 H41        -9.2769   -1.5149   60.0085 H       1  ZINC000623581528    0.1300
     42 H42       -10.4448   -3.1270   58.5638 H       1  ZINC000623581528    0.1400
     43 H43       -10.4707   -0.2641   55.3999 H       1  ZINC000623581528    0.1400
     44 H44        -3.5507    4.1399   53.5462 H       1  ZINC000623581528    0.1400
@<TRIPOS>BOND
     1     1     2    1
     2     1    28    1
     3     1    29    1
     4     1    30    1
     5     2    27    1
     6     2     3   am
     7     3     4    2
     8     3     5    1
     9     5     6    1
    10     6    27   ar
    11     6     7   ar
    12     7     8   ar
    13     7    31    1
    14     8     9   ar
    15     8    32    1
    16     9    10    1
    17     9    26   ar
    18    10    11    1
    19    10    33    1
    20    10    34    1
    21    11    12   am
    22    11    35    1
    23    12    13    2
    24    12    14   am
    25    14    15    1
    26    14    36    1
    27    15    16    1
    28    15    25    1
    29    15    17    1
    30    17    18    1
    31    17    37    1
    32    17    38    1
    33    18    19    1
    34    18    39    1
    35    18    40    1
    36    19    25   ar
    37    19    20   ar
    38    20    21   ar
    39    20    41    1
    40    21    22   ar
    41    21    42    1
    42    22    23    1
    43    22    24   ar
    44    24    25   ar
    45    24    43    1
    46    26    27   ar
    47    26    44    1
@<TRIPOS>SUBSTRUCTURE
     1 ZINC000623581528        1 TEMP              0 ****  ****    0 ROOT


##########                                Name:    ZINC000847397179
##########                DOCK_Rotatable_Bonds:                   9
##########                         Heavy_Atoms:                  25
##########                    Molecular_Weight:             350.461
##########                DOCK_Rotatable_Bonds:                   9
##########                       Formal_Charge:          0.00999979
##########                     HBond_Acceptors:                   7
##########                        HBond_Donors:                   2
##########                         Heavy_Atoms:                  25
##########                          Grid_Score:          -30.255676
##########                     Grid_vdw_energy:          -28.723967
##########                      Grid_es_energy:           -1.531709
##########           Internal_energy_repulsive:           86.350372

@<TRIPOS>MOLECULE
ZINC000847397179
 55 56 1 0 0
SMALL
USER_CHARGES


@<TRIPOS>ATOM
      1 C1         -8.6451    3.1853   62.5285 C.3     1  ZINC000847397179   -0.1500
      2 C2         -9.1946    2.0923   63.4472 C.3     1  ZINC000847397179   -0.1000
      3 H3         -9.6605    2.5510   64.3193 H       1  ZINC000847397179    0.0900
      4 C4         -8.0500    1.1833   63.8995 C.3     1  ZINC000847397179   -0.0200
      5 C5         -8.5368    0.2698   64.9947 C.2     1  ZINC000847397179    0.0100
      6 C6         -8.4448    0.5018   66.3180 C.2     1  ZINC000847397179   -0.0500
      7 N7         -9.0066   -0.5752   66.9490 N.pl3   1  ZINC000847397179   -0.5700
      8 C8         -9.4226   -1.4285   65.9886 C.2     1  ZINC000847397179    0.1800
      9 N9         -9.1428   -0.9143   64.8223 N.2     1  ZINC000847397179   -0.4900
     10 C10       -10.2189    1.2769   62.7009 C.2     1  ZINC000847397179    0.5200
     11 O11       -11.3955    1.5590   62.7831 O.2     1  ZINC000847397179   -0.5300
     12 N12        -9.8273    0.2342   61.9421 N.am    1  ZINC000847397179   -0.7400
     13 C13       -10.8232   -0.5596   61.2180 C.3     1  ZINC000847397179    0.1200
     14 C14       -10.9775   -0.0117   59.7978 C.3     1  ZINC000847397179    0.1500
     15 H15       -11.4213    0.9830   59.8361 H       1  ZINC000847397179    0.0800
     16 C16        -9.6035    0.0643   59.1246 C.3     1  ZINC000847397179   -0.1300
     17 C17        -9.7787    0.4798   57.6621 C.3     1  ZINC000847397179   -0.1200
     18 C18       -10.6183   -0.5691   56.9292 C.3     1  ZINC000847397179   -0.1400
     19 C19       -12.0038   -0.6524   57.5774 C.3     1  ZINC000847397179    0.1100
     20 N20       -11.8415   -0.9067   59.0158 N.am    1  ZINC000847397179   -0.5900
     21 C21       -12.4691   -1.9436   59.6049 C.2     1  ZINC000847397179    0.6500
     22 O22       -12.3268   -2.1433   60.7950 O.2     1  ZINC000847397179   -0.5500
     23 O23       -13.2537   -2.7585   58.8748 O.3     1  ZINC000847397179   -0.3600
     24 C24       -14.6869   -2.5394   58.9548 C.3     1  ZINC000847397179    0.1400
     25 C25       -14.9780   -1.0388   58.8891 C.3     1  ZINC000847397179   -0.1800
     26 C26       -15.3767   -3.2444   57.7852 C.3     1  ZINC000847397179   -0.1400
     27 C27       -15.2162   -3.1043   60.2745 C.3     1  ZINC000847397179   -0.1800
     28 H28        -8.1791    2.7267   61.6564 H       1  ZINC000847397179    0.0500
     29 H29        -9.4605    3.8330   62.2063 H       1  ZINC000847397179    0.0500
     30 H30        -7.9042    3.7752   63.0683 H       1  ZINC000847397179    0.1000
     31 H31        -7.7046    0.5865   63.0553 H       1  ZINC000847397179    0.0800
     32 H32        -7.2278    1.7932   64.2737 H       1  ZINC000847397179    0.0800
     33 H33        -8.0108    1.3705   66.7908 H       1  ZINC000847397179    0.1800
     34 H34        -9.0902   -0.7019   67.9071 H       1  ZINC000847397179    0.4200
     35 H35        -9.9099   -2.3774   66.1577 H       1  ZINC000847397179    0.2100
     36 H36        -8.8861    0.0093   61.8754 H       1  ZINC000847397179    0.3900
     37 H37       -10.4969   -1.5986   61.1732 H       1  ZINC000847397179    0.0800
     38 H38       -11.7806   -0.5014   61.7359 H       1  ZINC000847397179    0.1000
     39 H39        -8.9860    0.7998   59.6403 H       1  ZINC000847397179    0.0800
     40 H40        -9.1215   -0.9122   59.1702 H       1  ZINC000847397179    0.0700
     41 H41       -10.2831    1.4450   57.6167 H       1  ZINC000847397179    0.0700
     42 H42        -8.8007    0.5585   57.1874 H       1  ZINC000847397179    0.0700
     43 H43       -10.7229   -0.2846   55.8822 H       1  ZINC000847397179    0.0800
     44 H44       -10.1267   -1.5397   56.9955 H       1  ZINC000847397179    0.0700
     45 H45       -12.5322    0.2898   57.4325 H       1  ZINC000847397179    0.0700
     46 H46       -12.5709   -1.4654   57.1243 H       1  ZINC000847397179    0.0900
     47 H47       -14.6009   -0.6363   57.9490 H       1  ZINC000847397179    0.0600
     48 H48       -16.0539   -0.8744   58.9493 H       1  ZINC000847397179    0.0700
     49 H49       -14.4865   -0.5366   59.7224 H       1  ZINC000847397179    0.0900
     50 H50       -15.1694   -4.3135   57.8320 H       1  ZINC000847397179    0.0700
     51 H51       -16.4525   -3.0800   57.8453 H       1  ZINC000847397179    0.0800
     52 H52       -14.9997   -2.8420   56.8450 H       1  ZINC000847397179    0.0700
     53 H53       -14.7248   -2.6020   61.1079 H       1  ZINC000847397179    0.0900
     54 H54       -16.2920   -2.9399   60.3347 H       1  ZINC000847397179    0.0700
     55 H55       -15.0088   -4.1734   60.3213 H       1  ZINC000847397179    0.0600
@<TRIPOS>BOND
     1     1     2    1
     2     1    28    1
     3     1    29    1
     4     1    30    1
     5     2     3    1
     6     2     4    1
     7     2    10    1
     8     4     5    1
     9     4    31    1
    10     4    32    1
    11     5     9    1
    12     5     6    2
    13     6     7    1
    14     6    33    1
    15     7     8    1
    16     7    34    1
    17     8     9    2
    18     8    35    1
    19    10    11    2
    20    10    12   am
    21    12    13    1
    22    12    36    1
    23    13    14    1
    24    13    37    1
    25    13    38    1
    26    14    15    1
    27    14    20    1
    28    14    16    1
    29    16    17    1
    30    16    39    1
    31    16    40    1
    32    17    18    1
    33    17    41    1
    34    17    42    1
    35    18    19    1
    36    18    43    1
    37    18    44    1
    38    19    20    1
    39    19    45    1
    40    19    46    1
    41    20    21   am
    42    21    22    2
    43    21    23    1
    44    23    24    1
    45    24    25    1
    46    24    26    1
    47    24    27    1
    48    25    47    1
    49    25    48    1
    50    25    49    1
    51    26    50    1
    52    26    51    1
    53    26    52    1
    54    27    53    1
    55    27    54    1
    56    27    55    1
@<TRIPOS>SUBSTRUCTURE
     1 ZINC000847397179        1 TEMP              0 ****  ****    0 ROOT


##########                                Name:    ZINC000851838607
##########                DOCK_Rotatable_Bonds:                  12
##########                         Heavy_Atoms:                  23
##########                    Molecular_Weight:             352.495
##########                DOCK_Rotatable_Bonds:                  12
##########                       Formal_Charge:          0.00999896
##########                     HBond_Acceptors:                   8
##########                        HBond_Donors:                   2
##########                         Heavy_Atoms:                  23
##########                          Grid_Score:          -30.171154
##########                     Grid_vdw_energy:          -27.794680
##########                      Grid_es_energy:           -2.376475
##########           Internal_energy_repulsive:           20.330605

@<TRIPOS>MOLECULE
ZINC000851838607
 55 54 1 0 0
SMALL
USER_CHARGES


@<TRIPOS>ATOM
      1 C1        -14.2851   -5.0009   56.9622 C.3     1  ZINC000851838607    0.0300
      2 O2        -14.1935   -3.7902   57.7157 O.3     1  ZINC000851838607   -0.3800
      3 C3        -15.3267   -2.9310   57.5754 C.3     1  ZINC000851838607    0.0800
      4 C4        -15.1274   -1.6798   58.4332 C.3     1  ZINC000851838607   -0.6000
      5 H5        -14.1077   -1.3145   58.3113 H       1  ZINC000851838607    0.1400
      6 C6        -16.1134   -0.5963   57.9916 C.3     1  ZINC000851838607   -0.1400
      7 S7        -15.4190   -2.0888   60.1762 S.o2    1  ZINC000851838607    2.6200
      8 O8        -16.1543   -1.0542   60.8149 O.2     1  ZINC000851838607   -0.9400
      9 O9        -15.8018   -3.4506   60.3115 O.2     1  ZINC000851838607   -0.9500
     10 N10       -13.9192   -2.0149   60.8745 N.am    1  ZINC000851838607   -1.1200
     11 C11       -13.1590   -0.7630   60.8463 C.3     1  ZINC000851838607    0.1100
     12 C12       -11.7001   -1.0599   60.4937 C.3     1  ZINC000851838607   -0.1400
     13 C13       -10.8299    0.1412   60.8694 C.3     1  ZINC000851838607    0.1700
     14 H14       -11.4685    0.9845   61.1320 H       1  ZINC000851838607    0.1000
     15 N15        -9.9852   -0.2070   62.0146 N.am    1  ZINC000851838607   -0.7100
     16 C16       -10.4377   -0.0133   63.2693 C.2     1  ZINC000851838607    0.6500
     17 O17       -11.5457    0.4517   63.4505 O.2     1  ZINC000851838607   -0.5600
     18 O18        -9.6621   -0.3348   64.3217 O.3     1  ZINC000851838607   -0.3700
     19 C19        -8.8274    0.7185   64.8716 C.3     1  ZINC000851838607    0.1400
     20 C20        -8.2566    0.2666   66.2173 C.3     1  ZINC000851838607   -0.1800
     21 C21        -7.6796    1.0167   63.9050 C.3     1  ZINC000851838607   -0.1400
     22 C22        -9.6666    1.9820   65.0721 C.3     1  ZINC000851838607   -0.1800
     23 C23        -9.9455    0.5219   59.6804 C.3     1  ZINC000851838607   -0.1100
     24 C24        -9.3547    1.9145   59.9096 C.3     1  ZINC000851838607   -0.1500
     25 C25        -8.8119   -0.4964   59.5414 C.3     1  ZINC000851838607   -0.1400
     26 H26       -15.1592   -5.5656   57.2868 H       1  ZINC000851838607    0.0400
     27 H27       -14.3793   -4.7632   55.9026 H       1  ZINC000851838607    0.0500
     28 H28       -13.3870   -5.5975   57.1224 H       1  ZINC000851838607    0.0900
     29 H29       -15.4358   -2.6414   56.5303 H       1  ZINC000851838607    0.0700
     30 H30       -16.2239   -3.4566   57.9025 H       1  ZINC000851838607    0.0600
     31 H31       -16.0344    0.2610   58.6601 H       1  ZINC000851838607    0.0700
     32 H32       -15.8799   -0.2858   56.9732 H       1  ZINC000851838607    0.0900
     33 H33       -17.1282   -0.9925   58.0271 H       1  ZINC000851838607    0.0700
     34 H34       -13.5441   -2.8006   61.3022 H       1  ZINC000851838607    0.4200
     35 H35       -13.5854   -0.0957   60.0972 H       1  ZINC000851838607    0.0700
     36 H36       -13.2064   -0.2869   61.8258 H       1  ZINC000851838607    0.0800
     37 H37       -11.3647   -1.9383   61.0450 H       1  ZINC000851838607    0.0800
     38 H38       -11.6162   -1.2488   59.4235 H       1  ZINC000851838607    0.1000
     39 H39        -9.1004   -0.5771   61.8699 H       1  ZINC000851838607    0.4100
     40 H40        -7.6587   -0.6335   66.0746 H       1  ZINC000851838607    0.0600
     41 H41        -7.6301    1.0573   66.6301 H       1  ZINC000851838607    0.0700
     42 H42        -9.0743    0.0542   66.9060 H       1  ZINC000851838607    0.0900
     43 H43        -8.0863    1.3385   62.9462 H       1  ZINC000851838607    0.0700
     44 H44        -7.0530    1.8073   64.3177 H       1  ZINC000851838607    0.0800
     45 H45        -7.0817    0.1165   63.7622 H       1  ZINC000851838607    0.0700
     46 H46       -10.4844    1.7697   65.7607 H       1  ZINC000851838607    0.0900
     47 H47        -9.0401    2.7727   65.4848 H       1  ZINC000851838607    0.0700
     48 H48       -10.0734    2.3039   64.1133 H       1  ZINC000851838607    0.0600
     49 H49       -10.5437    0.5263   58.7693 H       1  ZINC000851838607    0.0700
     50 H50        -8.7565    1.9100   60.8207 H       1  ZINC000851838607    0.0600
     51 H51        -8.7245    2.1857   59.0625 H       1  ZINC000851838607    0.0600
     52 H52       -10.1622    2.6399   60.0086 H       1  ZINC000851838607    0.0600
     53 H53        -9.2327   -1.4885   59.3782 H       1  ZINC000851838607    0.0500
     54 H54        -8.1818   -0.2251   58.6944 H       1  ZINC000851838607    0.0500
     55 H55        -8.2137   -0.5008   60.4526 H       1  ZINC000851838607    0.0700
@<TRIPOS>BOND
     1     1     2    1
     2     1    26    1
     3     1    27    1
     4     1    28    1
     5     2     3    1
     6     3     4    1
     7     3    29    1
     8     3    30    1
     9     4     5    1
    10     4     6    1
    11     4     7    1
    12     6    31    1
    13     6    32    1
    14     6    33    1
    15     7     8    2
    16     7     9    2
    17     7    10   am
    18    10    11    1
    19    10    34    1
    20    11    12    1
    21    11    35    1
    22    11    36    1
    23    12    13    1
    24    12    37    1
    25    12    38    1
    26    13    14    1
    27    13    15    1
    28    13    23    1
    29    15    16   am
    30    15    39    1
    31    16    17    2
    32    16    18    1
    33    18    19    1
    34    19    20    1
    35    19    21    1
    36    19    22    1
    37    20    40    1
    38    20    41    1
    39    20    42    1
    40    21    43    1
    41    21    44    1
    42    21    45    1
    43    22    46    1
    44    22    47    1
    45    22    48    1
    46    23    24    1
    47    23    25    1
    48    23    49    1
    49    24    50    1
    50    24    51    1
    51    24    52    1
    52    25    53    1
    53    25    54    1
    54    25    55    1
@<TRIPOS>SUBSTRUCTURE
     1 ZINC000851838607        1 TEMP              0 ****  ****    0 ROOT


##########                                Name:    ZINC001327099466
##########                DOCK_Rotatable_Bonds:                   7
##########                         Heavy_Atoms:                  27
##########                    Molecular_Weight:             374.483
##########                DOCK_Rotatable_Bonds:                   7
##########                       Formal_Charge:           0.0199998
##########                     HBond_Acceptors:                   7
##########                        HBond_Donors:                   1
##########                         Heavy_Atoms:                  27
##########                          Grid_Score:          -30.166409
##########                     Grid_vdw_energy:          -26.430290
##########                      Grid_es_energy:           -3.736118
##########           Internal_energy_repulsive:           15.061484

@<TRIPOS>MOLECULE
ZINC001327099466
 57 60 1 0 0
SMALL
USER_CHARGES


@<TRIPOS>ATOM
      1 O1         -7.6601    3.8962   53.7819 O.2     1  ZINC001327099466   -0.4800
      2 C2         -6.8940    2.9655   53.6397 C.2     1  ZINC001327099466    0.5300
      3 N3         -6.5834    2.1816   54.6912 N.am    1  ZINC001327099466   -0.6000
      4 C4         -7.1395    2.4442   55.9479 C.2     1  ZINC001327099466    0.2900
      5 N5         -7.5322    1.5456   56.8207 N.2     1  ZINC001327099466   -0.3100
      6 N6         -8.0267    2.2169   57.9462 N.pl3   1  ZINC001327099466   -0.3500
      7 C7         -8.5660    1.5887   59.1548 C.3     1  ZINC001327099466    0.1700
      8 C8        -10.0913    1.5203   59.0567 C.3     1  ZINC001327099466   -0.1300
      9 C9        -10.6546    0.8640   60.3190 C.3     1  ZINC001327099466   -0.1200
     10 C10       -10.0882   -0.5508   60.4544 C.3     1  ZINC001327099466   -0.1300
     11 C11        -8.5629   -0.4823   60.5524 C.3     1  ZINC001327099466   -0.1200
     12 C12        -7.9997    0.1738   59.2902 C.3     1  ZINC001327099466   -0.1300
     13 C13        -7.9189    3.5438   57.7228 C.2     1  ZINC001327099466    0.0700
     14 C14        -7.3697    3.7155   56.4992 C.2     1  ZINC001327099466   -0.2700
     15 C15        -6.3004    2.6852   52.2983 C.2     1  ZINC001327099466    0.5100
     16 O16        -6.9310    2.0541   51.4754 O.2     1  ZINC001327099466   -0.5100
     17 N17        -5.0643    3.1329   52.0014 N.am    1  ZINC001327099466   -0.5700
     18 C18        -4.4670    2.8650   50.6860 C.3     1  ZINC001327099466    0.0400
     19 C19        -3.0983    2.2080   50.8905 C.3     1  ZINC001327099466   -0.1300
     20 C20        -2.2432    3.0926   51.8008 C.3     1  ZINC001327099466   -0.1200
     21 C21        -2.9219    3.2298   53.1655 C.3     1  ZINC001327099466    0.0800
     22 H22        -3.0550    2.2419   53.6065 H       1  ZINC001327099466    0.0700
     23 O23        -2.1075    4.0300   54.0250 O.3     1  ZINC001327099466   -0.3500
     24 C24        -2.4432    3.9222   55.4098 C.3     1  ZINC001327099466    0.0600
     25 C25        -1.9855    2.6028   56.0537 C.3     1  ZINC001327099466   -0.1600
     26 C26        -0.6591    3.3115   56.3755 C.3     1  ZINC001327099466   -0.1400
     27 C27        -1.4470    4.6316   56.3421 C.3     1  ZINC001327099466   -0.1400
     28 C28        -4.2908    3.9031   52.9849 C.3     1  ZINC001327099466    0.0900
     29 H29        -5.9743    1.4354   54.5766 H       1  ZINC001327099466    0.4300
     30 H30        -8.2841    2.1779   60.0274 H       1  ZINC001327099466    0.1000
     31 H31       -10.4948    2.5282   58.9603 H       1  ZINC001327099466    0.0700
     32 H32       -10.3732    0.9309   58.1842 H       1  ZINC001327099466    0.0700
     33 H33       -10.3726    1.4533   61.1914 H       1  ZINC001327099466    0.0700
     34 H34       -11.7412    0.8153   60.2490 H       1  ZINC001327099466    0.0700
     35 H35       -10.4894   -1.0183   61.3536 H       1  ZINC001327099466    0.0700
     36 H36       -10.3701   -1.1401   59.5818 H       1  ZINC001327099466    0.0700
     37 H37        -8.2809    0.1070   61.4250 H       1  ZINC001327099466    0.0700
     38 H38        -8.1594   -1.4903   60.6489 H       1  ZINC001327099466    0.0700
     39 H39        -8.2816   -0.4155   58.4176 H       1  ZINC001327099466    0.0700
     40 H40        -6.9130    0.2226   59.3600 H       1  ZINC001327099466    0.0700
     41 H41        -8.2151    4.3290   58.4026 H       1  ZINC001327099466    0.1800
     42 H42        -7.1521    4.6622   56.0271 H       1  ZINC001327099466    0.1700
     43 H43        -5.1137    2.1939   50.1209 H       1  ZINC001327099466    0.1600
     44 H44        -4.3450    3.8020   50.1425 H       1  ZINC001327099466    0.0700
     45 H45        -3.2298    1.2298   51.3529 H       1  ZINC001327099466    0.0700
     46 H46        -2.6030    2.0917   49.9265 H       1  ZINC001327099466    0.0900
     47 H47        -1.2601    2.6395   51.9279 H       1  ZINC001327099466    0.0800
     48 H48        -2.1328    4.0786   51.3493 H       1  ZINC001327099466    0.0800
     49 H49        -3.4848    4.1707   55.6134 H       1  ZINC001327099466    0.0700
     50 H50        -2.5589    2.3269   56.9385 H       1  ZINC001327099466    0.0900
     51 H51        -1.8813    1.7831   55.3428 H       1  ZINC001327099466    0.0700
     52 H52        -0.2604    3.0657   57.3597 H       1  ZINC001327099466    0.0700
     53 H53         0.0847    3.2266   55.5832 H       1  ZINC001327099466    0.0800
     54 H54        -0.9081    5.4497   55.8640 H       1  ZINC001327099466    0.0800
     55 H55        -1.8733    4.9102   57.3057 H       1  ZINC001327099466    0.0900
     56 H56        -4.1517    4.9242   52.6296 H       1  ZINC001327099466    0.0900
     57 H57        -4.8211    3.9145   53.9371 H       1  ZINC001327099466    0.1000
@<TRIPOS>BOND
     1     1     2    2
     2     2     3   am
     3     2    15    1
     4     3     4    1
     5     3    29    1
     6     4    14    1
     7     4     5    2
     8     5     6    1
     9     6     7    1
    10     6    13    1
    11     7    12    1
    12     7     8    1
    13     7    30    1
    14     8     9    1
    15     8    31    1
    16     8    32    1
    17     9    10    1
    18     9    33    1
    19     9    34    1
    20    10    11    1
    21    10    35    1
    22    10    36    1
    23    11    12    1
    24    11    37    1
    25    11    38    1
    26    12    39    1
    27    12    40    1
    28    13    14    2
    29    13    41    1
    30    14    42    1
    31    15    16    2
    32    15    17   am
    33    17    28    1
    34    17    18    1
    35    18    19    1
    36    18    43    1
    37    18    44    1
    38    19    20    1
    39    19    45    1
    40    19    46    1
    41    20    21    1
    42    20    47    1
    43    20    48    1
    44    21    22    1
    45    21    23    1
    46    21    28    1
    47    23    24    1
    48    24    27    1
    49    24    25    1
    50    24    49    1
    51    25    26    1
    52    25    50    1
    53    25    51    1
    54    26    27    1
    55    26    52    1
    56    26    53    1
    57    27    54    1
    58    27    55    1
    59    28    56    1
    60    28    57    1
@<TRIPOS>SUBSTRUCTURE
     1 ZINC001327099466        1 TEMP              0 ****  ****    0 ROOT


##########                                Name:    ZINC000417533280
##########                DOCK_Rotatable_Bonds:                   9
##########                         Heavy_Atoms:                  26
##########                    Molecular_Weight:             367.439
##########                DOCK_Rotatable_Bonds:                   9
##########                       Formal_Charge:         -0.00999999
##########                     HBond_Acceptors:                   7
##########                        HBond_Donors:                   2
##########                         Heavy_Atoms:                  26
##########                          Grid_Score:          -30.164858
##########                     Grid_vdw_energy:          -30.210312
##########                      Grid_es_energy:            0.045453
##########           Internal_energy_repulsive:           14.464972

@<TRIPOS>MOLECULE
ZINC000417533280
 53 54 1 0 0
SMALL
USER_CHARGES


@<TRIPOS>ATOM
      1 C1         -7.8323   -0.6774   59.6830 C.3     1  ZINC000417533280   -0.1600
      2 C2         -8.9538    0.2429   60.1687 C.3     1  ZINC000417533280   -0.1200
      3 C3         -9.9083    0.5392   59.0103 C.3     1  ZINC000417533280   -0.1200
      4 C4        -10.8578   -0.6448   58.8162 C.3     1  ZINC000417533280   -0.1300
      5 C5        -11.8111   -0.3492   57.6566 C.3     1  ZINC000417533280    0.1200
      6 N6        -11.0516   -0.2787   56.4059 N.am    1  ZINC000417533280   -0.7300
      7 C7        -11.6318    0.2096   55.2918 C.2     1  ZINC000417533280    0.5200
      8 O8        -12.7823    0.5921   55.3250 O.2     1  ZINC000417533280   -0.5400
      9 C9        -10.8510    0.2804   54.0047 C.3     1  ZINC000417533280   -0.1100
     10 C10       -10.2362    1.6742   53.8575 C.3     1  ZINC000417533280   -0.1300
     11 C11        -9.4723    1.7535   52.5320 C.3     1  ZINC000417533280    0.1300
     12 N12        -8.4973    0.6554   52.4817 N.am    1  ZINC000417533280   -0.6200
     13 C13        -7.1951    0.9040   52.2391 C.2     1  ZINC000417533280    0.7100
     14 O14        -6.3981   -0.0134   52.1999 O.2     1  ZINC000417533280   -0.5600
     15 N15        -6.7763    2.1695   52.0398 N.am    1  ZINC000417533280   -0.6800
     16 C16        -5.4231    2.4278   51.7877 C.ar    1  ZINC000417533280    0.1900
     17 C17        -4.8582    2.0535   50.5761 C.ar    1  ZINC000417533280   -0.1100
     18 C18        -3.5232    2.3092   50.3279 C.ar    1  ZINC000417533280   -0.1100
     19 C19        -2.7479    2.9380   51.2863 C.ar    1  ZINC000417533280    0.0500
     20 F20        -1.4429    3.1873   51.0412 F       1  ZINC000417533280   -0.1300
     21 C21        -3.3093    3.3132   52.4979 C.ar    1  ZINC000417533280    0.0900
     22 F22        -2.5511    3.9270   53.4324 F       1  ZINC000417533280   -0.1200
     23 C23        -4.6464    3.0635   52.7471 C.ar    1  ZINC000417533280   -0.1300
     24 C24        -5.2573    3.4712   54.0631 C.3     1  ZINC000417533280   -0.1200
     25 C25        -8.9689   -0.7186   52.7012 C.3     1  ZINC000417533280    0.1100
     26 C26        -9.7385   -0.7702   54.0249 C.3     1  ZINC000417533280   -0.1200
     27 H27        -8.2608   -1.6107   59.3174 H       1  ZINC000417533280    0.0500
     28 H28        -7.2848   -0.1888   58.8770 H       1  ZINC000417533280    0.0500
     29 H29        -7.1523   -0.8885   60.5083 H       1  ZINC000417533280    0.0500
     30 H30        -9.5013   -0.2457   60.9747 H       1  ZINC000417533280    0.0600
     31 H31        -8.5253    1.1762   60.5343 H       1  ZINC000417533280    0.0600
     32 H32       -10.4862    1.4353   59.2358 H       1  ZINC000417533280    0.0700
     33 H33        -9.3337    0.6974   58.0976 H       1  ZINC000417533280    0.0700
     34 H34       -10.2797   -1.5412   58.5920 H       1  ZINC000417533280    0.0700
     35 H35       -11.4332   -0.8022   59.7285 H       1  ZINC000417533280    0.0700
     36 H36       -12.5546   -1.1432   57.5860 H       1  ZINC000417533280    0.0700
     37 H37       -12.3120    0.6030   57.8317 H       1  ZINC000417533280    0.0700
     38 H38       -10.1311   -0.5835   56.3796 H       1  ZINC000417533280    0.4000
     39 H39       -11.5177    0.0873   53.1644 H       1  ZINC000417533280    0.1000
     40 H40       -11.0275    2.4237   53.8667 H       1  ZINC000417533280    0.0800
     41 H41        -9.5503    1.8585   54.6843 H       1  ZINC000417533280    0.0800
     42 H42       -10.1715    1.6597   51.7011 H       1  ZINC000417533280    0.0700
     43 H43        -8.9508    2.7084   52.4673 H       1  ZINC000417533280    0.1000
     44 H44        -7.4121    2.9013   52.0710 H       1  ZINC000417533280    0.4100
     45 H45        -5.4623    1.5623   49.8276 H       1  ZINC000417533280    0.1700
     46 H46        -3.0843    2.0175   49.3852 H       1  ZINC000417533280    0.1500
     47 H47        -5.6496    4.4850   53.9830 H       1  ZINC000417533280    0.0800
     48 H48        -6.0675    2.7869   54.3150 H       1  ZINC000417533280    0.0700
     49 H49        -4.4967    3.4365   54.8430 H       1  ZINC000417533280    0.0800
     50 H50        -9.6270   -1.0141   51.8841 H       1  ZINC000417533280    0.0800
     51 H51        -8.1152   -1.3948   52.7483 H       1  ZINC000417533280    0.0800
     52 H52        -9.0572   -0.5630   54.8501 H       1  ZINC000417533280    0.0800
     53 H53       -10.1755   -1.7605   54.1532 H       1  ZINC000417533280    0.0900
@<TRIPOS>BOND
     1     1     2    1
     2     1    27    1
     3     1    28    1
     4     1    29    1
     5     2     3    1
     6     2    30    1
     7     2    31    1
     8     3     4    1
     9     3    32    1
    10     3    33    1
    11     4     5    1
    12     4    34    1
    13     4    35    1
    14     5     6    1
    15     5    36    1
    16     5    37    1
    17     6     7   am
    18     6    38    1
    19     7     8    2
    20     7     9    1
    21     9    26    1
    22     9    10    1
    23     9    39    1
    24    10    11    1
    25    10    40    1
    26    10    41    1
    27    11    12    1
    28    11    42    1
    29    11    43    1
    30    12    13   am
    31    12    25    1
    32    13    14    2
    33    13    15   am
    34    15    16    1
    35    15    44    1
    36    16    23   ar
    37    16    17   ar
    38    17    18   ar
    39    17    45    1
    40    18    19   ar
    41    18    46    1
    42    19    20    1
    43    19    21   ar
    44    21    22    1
    45    21    23   ar
    46    23    24    1
    47    24    47    1
    48    24    48    1
    49    24    49    1
    50    25    26    1
    51    25    50    1
    52    25    51    1
    53    26    52    1
    54    26    53    1
@<TRIPOS>SUBSTRUCTURE
     1 ZINC000417533280        1 TEMP              0 ****  ****    0 ROOT


##########                                Name:    ZINC000425987417
##########                DOCK_Rotatable_Bonds:                   9
##########                         Heavy_Atoms:                  25
##########                    Molecular_Weight:             357.419
##########                DOCK_Rotatable_Bonds:                   9
##########                       Formal_Charge:         -0.00999992
##########                     HBond_Acceptors:                   7
##########                        HBond_Donors:                   1
##########                         Heavy_Atoms:                  25
##########                          Grid_Score:          -30.157927
##########                     Grid_vdw_energy:          -28.924887
##########                      Grid_es_energy:           -1.233040
##########           Internal_energy_repulsive:           13.019581

@<TRIPOS>MOLECULE
ZINC000425987417
 51 52 1 0 0
SMALL
USER_CHARGES


@<TRIPOS>ATOM
      1 C1          2.6395    2.8056   58.6203 C.3     1  ZINC000425987417   -0.1500
      2 C2          1.3078    2.0714   58.4511 C.3     1  ZINC000425987417    0.0400
      3 N3          0.3040    2.6659   59.3437 N.3     1  ZINC000425987417   -0.5300
      4 C4         -0.7567    3.3304   58.5746 C.3     1  ZINC000425987417    0.0400
      5 C5         -1.5668    2.2809   57.8110 C.3     1  ZINC000425987417    0.1400
      6 N6         -1.7941    2.7425   56.4394 N.am    1  ZINC000425987417   -0.7500
      7 C7         -2.9322    3.3937   56.1274 C.2     1  ZINC000425987417    0.7200
      8 O8         -3.7700    3.5981   56.9844 O.2     1  ZINC000425987417   -0.5800
      9 N9         -3.1413    3.8184   54.8655 N.am    1  ZINC000425987417   -0.6200
     10 C10        -4.3736    4.5324   54.4924 C.3     1  ZINC000425987417    0.1300
     11 C11        -5.1330    3.6659   53.4889 C.3     1  ZINC000425987417   -0.1000
     12 C12        -4.2118    3.1654   52.4077 C.ar    1  ZINC000425987417   -0.0600
     13 C13        -4.7873    2.7394   51.2172 C.ar    1  ZINC000425987417   -0.1200
     14 C14        -4.0013    2.2604   50.1896 C.ar    1  ZINC000425987417   -0.1100
     15 C15        -2.6290    2.2012   50.3439 C.ar    1  ZINC000425987417   -0.1200
     16 C16        -2.0543    2.6269   51.5242 C.ar    1  ZINC000425987417   -0.1100
     17 C17        -2.8436    3.1144   52.5565 C.ar    1  ZINC000425987417   -0.0900
     18 C18        -2.1476    3.5929   53.8104 C.3     1  ZINC000425987417    0.1800
     19 H19        -1.4338    2.8378   54.1397 H       1  ZINC000425987417    0.0900
     20 C20        -1.4072    4.8989   53.5147 C.3     1  ZINC000425987417   -0.1600
     21 C21        -0.2573    1.6565   60.2514 C.3     1  ZINC000425987417    0.0500
     22 C22         0.6786    1.4691   61.4472 C.3     1  ZINC000425987417   -0.1600
     23 C23        -0.0087    0.5990   62.5014 C.3     1  ZINC000425987417    0.4500
     24 F24         0.8696    0.3769   63.5675 F       1  ZINC000425987417   -0.1800
     25 F25        -1.1546    1.2508   62.9694 F       1  ZINC000425987417   -0.1800
     26 F26        -0.3694   -0.6266   61.9314 F       1  ZINC000425987417   -0.1900
     27 H27         2.9970    2.6788   59.6421 H       1  ZINC000425987417    0.0500
     28 H28         3.3718    2.3945   57.9254 H       1  ZINC000425987417    0.0600
     29 H29         2.4982    3.8664   58.4137 H       1  ZINC000425987417    0.0700
     30 H30         0.9729    2.1597   57.4177 H       1  ZINC000425987417    0.0800
     31 H31         1.4390    1.0187   58.7019 H       1  ZINC000425987417    0.0400
     32 H32        -1.4137    3.8722   59.2551 H       1  ZINC000425987417    0.0500
     33 H33        -0.3095    4.0293   57.8678 H       1  ZINC000425987417    0.0800
     34 H34        -1.0160    1.3405   57.7914 H       1  ZINC000425987417    0.0800
     35 H35        -2.5255    2.1302   58.3073 H       1  ZINC000425987417    0.0700
     36 H36        -1.1256    2.5794   55.7557 H       1  ZINC000425987417    0.3900
     37 H37        -4.9878    4.6955   55.3780 H       1  ZINC000425987417    0.1000
     38 H38        -4.1213    5.4897   54.0364 H       1  ZINC000425987417    0.0700
     39 H39        -5.5707    2.8143   54.0097 H       1  ZINC000425987417    0.0800
     40 H40        -5.9297    4.2563   53.0362 H       1  ZINC000425987417    0.0900
     41 H41        -5.8595    2.7833   51.0951 H       1  ZINC000425987417    0.1200
     42 H42        -4.4571    1.9321   49.2672 H       1  ZINC000425987417    0.1200
     43 H43        -2.0092    1.8232   49.5444 H       1  ZINC000425987417    0.1200
     44 H44        -0.9822    2.5802   51.6455 H       1  ZINC000425987417    0.1200
     45 H45        -2.1203    5.6539   53.1839 H       1  ZINC000425987417    0.0700
     46 H46        -0.9051    5.2445   54.4184 H       1  ZINC000425987417    0.0600
     47 H47        -0.6688    4.7286   52.7313 H       1  ZINC000425987417    0.0700
     48 H48        -1.2344    1.9874   60.6033 H       1  ZINC000425987417    0.0500
     49 H49        -0.3634    0.7101   59.7213 H       1  ZINC000425987417    0.0900
     50 H50         1.5968    0.9830   61.1173 H       1  ZINC000425987417    0.1200
     51 H51         0.9169    2.4416   61.8779 H       1  ZINC000425987417    0.1100
@<TRIPOS>BOND
     1     1     2    1
     2     1    27    1
     3     1    28    1
     4     1    29    1
     5     2     3    1
     6     2    30    1
     7     2    31    1
     8     3     4    1
     9     3    21    1
    10     4     5    1
    11     4    32    1
    12     4    33    1
    13     5     6    1
    14     5    34    1
    15     5    35    1
    16     6     7   am
    17     6    36    1
    18     7     8    2
    19     7     9   am
    20     9    18    1
    21     9    10    1
    22    10    11    1
    23    10    37    1
    24    10    38    1
    25    11    12    1
    26    11    39    1
    27    11    40    1
    28    12    17   ar
    29    12    13   ar
    30    13    14   ar
    31    13    41    1
    32    14    15   ar
    33    14    42    1
    34    15    16   ar
    35    15    43    1
    36    16    17   ar
    37    16    44    1
    38    17    18    1
    39    18    19    1
    40    18    20    1
    41    20    45    1
    42    20    46    1
    43    20    47    1
    44    21    22    1
    45    21    48    1
    46    21    49    1
    47    22    23    1
    48    22    50    1
    49    22    51    1
    50    23    24    1
    51    23    25    1
    52    23    26    1
@<TRIPOS>SUBSTRUCTURE
     1 ZINC000425987417        1 TEMP              0 ****  ****    0 ROOT


##########                                Name:    ZINC001347442583
##########                DOCK_Rotatable_Bonds:                   9
##########                         Heavy_Atoms:                  27
##########                    Molecular_Weight:             370.492
##########                DOCK_Rotatable_Bonds:                   9
##########                       Formal_Charge:          -0.0400009
##########                     HBond_Acceptors:                   5
##########                        HBond_Donors:                   1
##########                         Heavy_Atoms:                  27
##########                          Grid_Score:          -30.157270
##########                     Grid_vdw_energy:          -28.466263
##########                      Grid_es_energy:           -1.691007
##########           Internal_energy_repulsive:           13.591166

@<TRIPOS>MOLECULE
ZINC001347442583
 57 60 1 0 0
SMALL
USER_CHARGES


@<TRIPOS>ATOM
      1 O1         -7.2013   -0.2618   58.6819 O.2     1  ZINC001347442583   -0.5400
      2 C2         -7.6390    0.8530   58.8731 C.2     1  ZINC001347442583    0.5400
      3 C3         -7.1496    2.0081   58.0382 C.3     1  ZINC001347442583   -0.1400
      4 C4         -7.5247    1.7736   56.5734 C.3     1  ZINC001347442583   -0.1000
      5 C5         -7.7769    3.1190   55.8899 C.3     1  ZINC001347442583   -0.1100
      6 C6         -7.4810    2.9943   54.3939 C.3     1  ZINC001347442583   -0.0800
      7 C7         -8.2783    1.8527   53.8176 C.ar    1  ZINC001347442583   -0.0800
      8 C8         -9.6550    1.8387   53.9425 C.ar    1  ZINC001347442583   -0.1200
      9 C9        -10.3862    0.7915   53.4138 C.ar    1  ZINC001347442583   -0.1200
     10 C10        -9.7410   -0.2414   52.7599 C.ar    1  ZINC001347442583   -0.1300
     11 C11        -8.3645   -0.2269   52.6342 C.ar    1  ZINC001347442583   -0.1200
     12 C12        -7.6335    0.8225   53.1591 C.ar    1  ZINC001347442583   -0.1200
     13 N13        -8.5673    1.0578   59.8286 N.am    1  ZINC001347442583   -0.6300
     14 C14        -9.2692    2.3129   60.2634 C.3     1  ZINC001347442583    0.1200
     15 H15        -8.9903    3.2223   59.7313 H       1  ZINC001347442583    0.1200
     16 C16        -8.9680    2.3092   61.7925 C.3     1  ZINC001347442583   -0.1300
     17 C17        -8.9334    0.8026   62.1490 C.3     1  ZINC001347442583   -0.1300
     18 C18        -9.2232    0.1001   60.7824 C.3     1  ZINC001347442583    0.1200
     19 H19        -8.9004   -0.9384   60.7097 H       1  ZINC001347442583    0.1200
     20 C20       -10.7362    0.3547   60.5090 C.3     1  ZINC001347442583    0.1300
     21 H21       -11.3279    0.1470   61.4006 H       1  ZINC001347442583    0.1100
     22 N22       -11.2010   -0.4582   59.3823 N.am    1  ZINC001347442583   -0.7200
     23 C23       -11.7614   -1.6632   59.6065 C.2     1  ZINC001347442583    0.5300
     24 O24       -11.8824   -2.0740   60.7412 O.2     1  ZINC001347442583   -0.5300
     25 C25       -12.2379   -2.5001   58.4473 C.3     1  ZINC001347442583   -0.1500
     26 H26       -13.1844   -2.9856   58.6848 H       1  ZINC001347442583    0.1100
     27 C27       -12.3656   -1.6400   57.1605 C.3     1  ZINC001347442583   -0.1400
     28 C28       -12.1334   -2.7120   56.0660 C.3     1  ZINC001347442583    0.0500
     29 O29       -11.1424   -3.5969   56.6121 O.3     1  ZINC001347442583   -0.3800
     30 C30       -11.1713   -3.5417   58.0466 C.3     1  ZINC001347442583    0.0700
     31 C31       -10.7611    1.8839   60.1254 C.3     1  ZINC001347442583   -0.1400
     32 H32        -7.6120    2.9311   58.3883 H       1  ZINC001347442583    0.0900
     33 H33        -6.0663    2.0878   58.1275 H       1  ZINC001347442583    0.0900
     34 H34        -6.7092    1.2564   56.0680 H       1  ZINC001347442583    0.0700
     35 H35        -8.4276    1.1652   56.5225 H       1  ZINC001347442583    0.0700
     36 H36        -8.8180    3.4090   56.0314 H       1  ZINC001347442583    0.0600
     37 H37        -7.1260    3.8762   56.3270 H       1  ZINC001347442583    0.0600
     38 H38        -7.7569    3.9208   53.8905 H       1  ZINC001347442583    0.0700
     39 H39        -6.4176    2.8044   54.2485 H       1  ZINC001347442583    0.0700
     40 H40       -10.1591    2.6456   54.4534 H       1  ZINC001347442583    0.1200
     41 H41       -11.4617    0.7801   53.5121 H       1  ZINC001347442583    0.1200
     42 H42       -10.3123   -1.0599   52.3475 H       1  ZINC001347442583    0.1200
     43 H43        -7.8603   -1.0341   52.1235 H       1  ZINC001347442583    0.1200
     44 H44        -6.5580    0.8338   53.0609 H       1  ZINC001347442583    0.1200
     45 H45        -8.0030    2.7739   61.9949 H       1  ZINC001347442583    0.0700
     46 H46        -9.7619    2.8155   62.3415 H       1  ZINC001347442583    0.0800
     47 H47        -7.9512    0.5203   62.5283 H       1  ZINC001347442583    0.0800
     48 H48        -9.7101    0.5619   62.8748 H       1  ZINC001347442583    0.0800
     49 H49       -11.1054   -0.1290   58.4748 H       1  ZINC001347442583    0.4000
     50 H50       -13.3606   -1.2028   57.0773 H       1  ZINC001347442583    0.0900
     51 H51       -11.5956   -0.8693   57.1250 H       1  ZINC001347442583    0.0900
     52 H52       -13.0571   -3.2553   55.8666 H       1  ZINC001347442583    0.0700
     53 H53       -11.7628   -2.2463   55.1528 H       1  ZINC001347442583    0.0900
     54 H54       -10.1966   -3.2331   58.4244 H       1  ZINC001347442583    0.0700
     55 H55       -11.4323   -4.5204   58.4491 H       1  ZINC001347442583    0.0800
     56 H56       -11.3691    2.4475   60.8331 H       1  ZINC001347442583    0.0900
     57 H57       -11.1295    2.0187   59.1085 H       1  ZINC001347442583    0.0800
@<TRIPOS>BOND
     1     1     2    2
     2     2     3    1
     3     2    13   am
     4     3     4    1
     5     3    32    1
     6     3    33    1
     7     4     5    1
     8     4    34    1
     9     4    35    1
    10     5     6    1
    11     5    36    1
    12     5    37    1
    13     6     7    1
    14     6    38    1
    15     6    39    1
    16     7    12   ar
    17     7     8   ar
    18     8     9   ar
    19     8    40    1
    20     9    10   ar
    21     9    41    1
    22    10    11   ar
    23    10    42    1
    24    11    12   ar
    25    11    43    1
    26    12    44    1
    27    13    18    1
    28    13    14    1
    29    14    15    1
    30    14    31    1
    31    14    16    1
    32    16    17    1
    33    16    45    1
    34    16    46    1
    35    17    18    1
    36    17    47    1
    37    17    48    1
    38    18    19    1
    39    18    20    1
    40    20    21    1
    41    20    22    1
    42    20    31    1
    43    22    23   am
    44    22    49    1
    45    23    24    2
    46    23    25    1
    47    25    26    1
    48    25    30    1
    49    25    27    1
    50    27    28    1
    51    27    50    1
    52    27    51    1
    53    28    29    1
    54    28    52    1
    55    28    53    1
    56    29    30    1
    57    30    54    1
    58    30    55    1
    59    31    56    1
    60    31    57    1
@<TRIPOS>SUBSTRUCTURE
     1 ZINC001347442583        1 TEMP              0 ****  ****    0 ROOT


##########                                Name:    ZINC000880838037
##########                DOCK_Rotatable_Bonds:                   9
##########                         Heavy_Atoms:                  24
##########                    Molecular_Weight:             365.477
##########                DOCK_Rotatable_Bonds:                   9
##########                       Formal_Charge:           0.0200001
##########                     HBond_Acceptors:                   8
##########                        HBond_Donors:                   3
##########                         Heavy_Atoms:                  24
##########                          Grid_Score:          -30.153833
##########                     Grid_vdw_energy:          -28.940422
##########                      Grid_es_energy:           -1.213412
##########           Internal_energy_repulsive:           13.283202

@<TRIPOS>MOLECULE
ZINC000880838037
 43 44 1 0 0
SMALL
USER_CHARGES


@<TRIPOS>ATOM
      1 C1          1.3814    3.6767   52.8558 C.3     1  ZINC000880838037    0.0300
      2 O2          0.5291    4.2256   51.8486 O.3     1  ZINC000880838037   -0.3100
      3 C3         -0.5167    3.4597   51.4408 C.ar    1  ZINC000880838037    0.1400
      4 C4         -0.4261    2.7310   50.2634 C.ar    1  ZINC000880838037   -0.2200
      5 C5         -1.4889    1.9515   49.8474 C.ar    1  ZINC000880838037   -0.0700
      6 C6         -2.6447    1.8958   50.6016 C.ar    1  ZINC000880838037   -0.1500
      7 C7         -2.7413    2.6237   51.7810 C.ar    1  ZINC000880838037    0.1800
      8 N8         -3.9122    2.5673   52.5451 N.am    1  ZINC000880838037   -0.6700
      9 C9         -5.0578    3.0875   52.0620 C.2     1  ZINC000880838037    0.5200
     10 O10        -5.0739    3.6045   50.9650 O.2     1  ZINC000880838037   -0.4900
     11 C11        -6.3187    3.0267   52.8850 C.3     1  ZINC000880838037   -0.0600
     12 C12        -6.9553    1.6696   52.7292 C.2     1  ZINC000880838037    0.1000
     13 C13        -6.3982    0.6901   52.0165 C.2     1  ZINC000880838037   -0.2600
     14 S14        -7.4594   -0.7141   52.0928 S.3     1  ZINC000880838037    0.1300
     15 C15        -8.5540    0.1534   53.0788 C.2     1  ZINC000880838037    0.0100
     16 S16       -10.0642   -0.4902   53.7189 S.3     1  ZINC000880838037    0.1000
     17 C17       -11.0474    1.0278   53.7909 C.3     1  ZINC000880838037   -0.1500
     18 H18       -10.3865    1.8820   53.9381 H       1  ZINC000880838037    0.1200
     19 C19       -12.0356    0.9407   54.9556 C.3     1  ZINC000880838037   -0.1500
     20 C20       -11.8063    1.1965   52.4999 C.2     1  ZINC000880838037    0.5400
     21 N21       -11.4392    2.1512   51.6222 N.am    1  ZINC000880838037   -0.8400
     22 O22       -12.7473    0.4732   52.2507 O.2     1  ZINC000880838037   -0.5200
     23 N23        -8.1076    1.3530   53.2921 N.2     1  ZINC000880838037   -0.4200
     24 C24        -1.6728    3.4015   52.2036 C.ar    1  ZINC000880838037   -0.1500
     25 C25        -1.7739    4.1924   53.4825 C.3     1  ZINC000880838037   -0.1000
     26 H26         1.8224    2.7486   52.4922 H       1  ZINC000880838037    0.0600
     27 H27         2.1735    4.3884   53.0889 H       1  ZINC000880838037    0.1000
     28 H28         0.7986    3.4745   53.7544 H       1  ZINC000880838037    0.0600
     29 H29         0.4761    2.7731   49.6712 H       1  ZINC000880838037    0.1300
     30 H30        -1.4158    1.3854   48.9306 H       1  ZINC000880838037    0.1300
     31 H31        -3.4740    1.2864   50.2741 H       1  ZINC000880838037    0.1400
     32 H32        -3.8992    2.1538   53.4224 H       1  ZINC000880838037    0.4100
     33 H33        -6.0764    3.1961   53.9341 H       1  ZINC000880838037    0.1200
     34 H34        -7.0127    3.7949   52.5438 H       1  ZINC000880838037    0.1200
     35 H35        -5.4601    0.7475   51.4846 H       1  ZINC000880838037    0.1800
     36 H36       -12.6964    0.0865   54.8084 H       1  ZINC000880838037    0.0900
     37 H37       -11.4867    0.8187   55.8895 H       1  ZINC000880838037    0.0800
     38 H38       -12.6276    1.8549   54.9990 H       1  ZINC000880838037    0.0800
     39 H39       -11.9283    2.2606   50.7918 H       1  ZINC000880838037    0.4000
     40 H40       -10.6858    2.7290   51.8211 H       1  ZINC000880838037    0.4100
     41 H41        -1.4234    3.5828   54.3153 H       1  ZINC000880838037    0.0700
     42 H42        -1.1593    5.0892   53.4046 H       1  ZINC000880838037    0.0700
     43 H43        -2.8122    4.4771   53.6524 H       1  ZINC000880838037    0.0600
@<TRIPOS>BOND
     1     1     2    1
     2     1    26    1
     3     1    27    1
     4     1    28    1
     5     2     3    1
     6     3    24   ar
     7     3     4   ar
     8     4     5   ar
     9     4    29    1
    10     5     6   ar
    11     5    30    1
    12     6     7   ar
    13     6    31    1
    14     7     8    1
    15     7    24   ar
    16     8     9   am
    17     8    32    1
    18     9    10    2
    19     9    11    1
    20    11    12    1
    21    11    33    1
    22    11    34    1
    23    12    23    1
    24    12    13    2
    25    13    14    1
    26    13    35    1
    27    14    15    1
    28    15    16    1
    29    15    23    2
    30    16    17    1
    31    17    18    1
    32    17    19    1
    33    17    20    1
    34    19    36    1
    35    19    37    1
    36    19    38    1
    37    20    21   am
    38    20    22    2
    39    21    39    1
    40    21    40    1
    41    24    25    1
    42    25    41    1
    43    25    42    1
    44    25    43    1
@<TRIPOS>SUBSTRUCTURE
     1 ZINC000880838037        1 TEMP              0 ****  ****    0 ROOT


##########                                Name:    ZINC001078110631
##########                DOCK_Rotatable_Bonds:                   7
##########                         Heavy_Atoms:                  25
##########                    Molecular_Weight:             353.369
##########                DOCK_Rotatable_Bonds:                   7
##########                       Formal_Charge:           0.0100006
##########                     HBond_Acceptors:                   8
##########                        HBond_Donors:                   2
##########                         Heavy_Atoms:                  25
##########                          Grid_Score:          -30.110819
##########                     Grid_vdw_energy:          -27.551630
##########                      Grid_es_energy:           -2.559188
##########           Internal_energy_repulsive:            6.701388

@<TRIPOS>MOLECULE
ZINC001078110631
 46 48 1 0 0
SMALL
USER_CHARGES


@<TRIPOS>ATOM
      1 O1         -5.5113    4.3388   51.6303 O.2     1  ZINC001078110631   -0.5100
      2 C2         -4.7503    3.6256   52.2553 C.2     1  ZINC001078110631    0.5600
      3 N3         -5.1079    3.1575   53.4675 N.am    1  ZINC001078110631   -0.7200
      4 C4         -6.4111    3.5129   54.0347 C.3     1  ZINC001078110631    0.1500
      5 H5         -6.5695    4.5895   53.9725 H       1  ZINC001078110631    0.1200
      6 C6         -6.5040    3.0411   55.5017 C.3     1  ZINC001078110631    0.0300
      7 N7         -7.9103    2.5894   55.6613 N.3     1  ZINC001078110631   -0.5000
      8 C8         -8.0427    1.6736   56.8023 C.3     1  ZINC001078110631    0.0300
      9 C9         -7.8500    2.4515   58.1056 C.3     1  ZINC001078110631    0.1300
     10 N10        -8.3303    1.6456   59.2309 N.am    1  ZINC001078110631   -0.6200
     11 C11        -9.3597    2.0818   60.1818 C.3     1  ZINC001078110631    0.1000
     12 C12        -9.8403    0.7946   60.8879 C.3     1  ZINC001078110631   -0.1300
     13 C13        -8.6056   -0.1248   60.7421 C.3     1  ZINC001078110631   -0.1600
     14 C14        -7.8891    0.4097   59.5216 C.2     1  ZINC001078110631    0.5200
     15 O15        -7.0355   -0.1871   58.9002 O.2     1  ZINC001078110631   -0.5200
     16 C16        -8.2181    1.8963   54.3839 C.3     1  ZINC001078110631    0.0000
     17 C17        -7.5390    2.7618   53.2975 C.3     1  ZINC001078110631    0.1000
     18 H18        -7.1227    2.1283   52.5143 H       1  ZINC001078110631    0.0700
     19 O19        -8.4764    3.6860   52.7414 O.3     1  ZINC001078110631   -0.5500
     20 C20        -3.4376    3.2677   51.6840 C.ar    1  ZINC001078110631   -0.1900
     21 C21        -2.2631    3.7374   52.2766 C.ar    1  ZINC001078110631   -0.0300
     22 C22        -1.0400    3.4003   51.7392 C.ar    1  ZINC001078110631   -0.1700
     23 C23        -0.9717    2.5958   50.6111 C.ar    1  ZINC001078110631    0.1600
     24 F24         0.2311    2.2695   50.0896 F       1  ZINC001078110631   -0.1200
     25 C25        -2.1315    2.1254   50.0172 C.ar    1  ZINC001078110631   -0.2000
     26 C26        -3.3640    2.4518   50.5494 C.ar    1  ZINC001078110631    0.2000
     27 F27        -4.4950    1.9930   49.9703 F       1  ZINC001078110631   -0.1000
     28 H28        -4.5024    2.5853   53.9644 H       1  ZINC001078110631    0.4000
     29 H29        -5.8166    2.2141   55.6793 H       1  ZINC001078110631    0.0500
     30 H30        -6.2905    3.8667   56.1807 H       1  ZINC001078110631    0.1000
     31 H31        -9.0344    1.2215   56.7922 H       1  ZINC001078110631    0.0400
     32 H32        -7.2864    0.8920   56.7305 H       1  ZINC001078110631    0.0800
     33 H33        -6.7917    2.6734   58.2433 H       1  ZINC001078110631    0.0900
     34 H34        -8.4135    3.3833   58.0593 H       1  ZINC001078110631    0.0800
     35 H35        -8.9334    2.7736   60.9081 H       1  ZINC001078110631    0.0700
     36 H36       -10.1876    2.5528   59.6518 H       1  ZINC001078110631    0.0800
     37 H37       -10.0627    0.9854   61.9377 H       1  ZINC001078110631    0.0900
     38 H38       -10.7052    0.3699   60.3784 H       1  ZINC001078110631    0.0800
     39 H39        -7.9698   -0.0527   61.6245 H       1  ZINC001078110631    0.1100
     40 H40        -8.9157   -1.1568   60.5774 H       1  ZINC001078110631    0.1000
     41 H41        -7.7990    0.8902   54.3866 H       1  ZINC001078110631    0.0600
     42 H42        -9.2954    1.8599   54.2212 H       1  ZINC001078110631    0.0900
     43 H43        -9.3459    3.3035   52.5607 H       1  ZINC001078110631    0.3800
     44 H44        -2.3136    4.3640   53.1548 H       1  ZINC001078110631    0.1500
     45 H45        -0.1320    3.7636   52.1972 H       1  ZINC001078110631    0.1500
     46 H46        -2.0721    1.4995   49.1390 H       1  ZINC001078110631    0.1600
@<TRIPOS>BOND
     1     1     2    2
     2     2     3   am
     3     2    20    1
     4     3     4    1
     5     3    28    1
     6     4     5    1
     7     4    17    1
     8     4     6    1
     9     6     7    1
    10     6    29    1
    11     6    30    1
    12     7     8    1
    13     7    16    1
    14     8     9    1
    15     8    31    1
    16     8    32    1
    17     9    10    1
    18     9    33    1
    19     9    34    1
    20    10    14   am
    21    10    11    1
    22    11    12    1
    23    11    35    1
    24    11    36    1
    25    12    13    1
    26    12    37    1
    27    12    38    1
    28    13    14    1
    29    13    39    1
    30    13    40    1
    31    14    15    2
    32    16    17    1
    33    16    41    1
    34    16    42    1
    35    17    18    1
    36    17    19    1
    37    19    43    1
    38    20    26   ar
    39    20    21   ar
    40    21    22   ar
    41    21    44    1
    42    22    23   ar
    43    22    45    1
    44    23    24    1
    45    23    25   ar
    46    25    26   ar
    47    25    46    1
    48    26    27    1
@<TRIPOS>SUBSTRUCTURE
     1 ZINC001078110631        1 TEMP              0 ****  ****    0 ROOT


##########                                Name:    ZINC001220171460
##########                DOCK_Rotatable_Bonds:                  10
##########                         Heavy_Atoms:                  25
##########                    Molecular_Weight:             383.773
##########                DOCK_Rotatable_Bonds:                  10
##########                       Formal_Charge:           0.0199996
##########                     HBond_Acceptors:                  10
##########                        HBond_Donors:                   3
##########                         Heavy_Atoms:                  25
##########                          Grid_Score:          -30.104866
##########                     Grid_vdw_energy:          -29.488270
##########                      Grid_es_energy:           -0.616596
##########           Internal_energy_repulsive:           19.855495

@<TRIPOS>MOLECULE
ZINC001220171460
 43 44 1 0 0
SMALL
USER_CHARGES


@<TRIPOS>ATOM
      1 C1         -5.3961    1.4539   50.2864 C.3     1  ZINC001220171460    0.0200
      2 O2         -3.9830    1.2462   50.3285 O.3     1  ZINC001220171460   -0.3100
      3 C3         -3.2550    2.1054   51.0916 C.ar    1  ZINC001220171460    0.1000
      4 C4         -3.7284    2.5044   52.3302 C.ar    1  ZINC001220171460   -0.1500
      5 C5         -2.9873    3.3784   53.1061 C.ar    1  ZINC001220171460   -0.0600
      6 Cl6        -3.5827    3.8766   54.6588 Cl      1  ZINC001220171460   -0.0400
      7 C7         -1.7713    3.8564   52.6462 C.ar    1  ZINC001220171460    0.1000
      8 F8         -1.0506    4.7093   53.4067 F       1  ZINC001220171460   -0.1200
      9 C9         -1.2931    3.4611   51.4089 C.ar    1  ZINC001220171460   -0.1200
     10 C10        -2.0295    2.5808   50.6304 C.ar    1  ZINC001220171460    0.1800
     11 N11        -1.5469    2.1791   49.3768 N.am    1  ZINC001220171460   -0.6700
     12 C12        -0.3169    1.6388   49.2698 C.2     1  ZINC001220171460    0.7100
     13 O13         0.3743    1.4996   50.2604 O.2     1  ZINC001220171460   -0.5700
     14 N14         0.1470    1.2526   48.0647 N.am    1  ZINC001220171460   -0.7400
     15 C15         1.4847    0.6669   47.9481 C.3     1  ZINC001220171460    0.1400
     16 C16         2.5058    1.7757   47.6859 C.3     1  ZINC001220171460   -0.1400
     17 C17         3.8929    1.1577   47.4988 C.3     1  ZINC001220171460    0.0500
     18 H18         4.6396    1.9501   47.4464 H       1  ZINC001220171460    0.1000
     19 N19         4.1935    0.2760   48.6346 N.3     1  ZINC001220171460   -0.6500
     20 C20         4.5068    1.0568   49.8388 C.3     1  ZINC001220171460    0.0100
     21 C21         3.5248    0.9751   51.0092 C.3     1  ZINC001220171460   -0.2000
     22 C22         4.8864    0.2837   51.1032 C.3     1  ZINC001220171460   -0.1600
     23 C23         3.9190    0.3461   46.2021 C.3     1  ZINC001220171460    0.4600
     24 F24         3.3926   -0.9282   46.4389 F       1  ZINC001220171460   -0.1800
     25 F25         3.1499    0.9950   45.2301 F       1  ZINC001220171460   -0.1800
     26 F26         5.2383    0.2293   45.7514 F       1  ZINC001220171460   -0.1700
     27 H27        -5.8057    1.3707   51.2931 H       1  ZINC001220171460    0.0600
     28 H28        -5.6058    2.4474   49.8899 H       1  ZINC001220171460    0.0600
     29 H29        -5.8550    0.7022   49.6441 H       1  ZINC001220171460    0.1100
     30 H30        -4.6765    2.1335   52.6909 H       1  ZINC001220171460    0.1500
     31 H31        -0.3449    3.8347   51.0515 H       1  ZINC001220171460    0.1800
     32 H32        -2.0984    2.2901   48.5866 H       1  ZINC001220171460    0.4200
     33 H33        -0.4050    1.3625   47.2746 H       1  ZINC001220171460    0.4000
     34 H34         1.7378    0.1516   48.8746 H       1  ZINC001220171460    0.0800
     35 H35         1.4995   -0.0435   47.1215 H       1  ZINC001220171460    0.0700
     36 H36         2.2266    2.3212   46.7846 H       1  ZINC001220171460    0.1000
     37 H37         2.5245    2.4603   48.5339 H       1  ZINC001220171460    0.1000
     38 H38         3.4328   -0.3642   48.8066 H       1  ZINC001220171460    0.3600
     39 H39         5.0038    2.0112   49.6642 H       1  ZINC001220171460    0.1200
     40 H40         3.3754    1.8757   51.6047 H       1  ZINC001220171460    0.1000
     41 H41         2.6462    0.3418   50.8856 H       1  ZINC001220171460    0.1000
     42 H42         4.9036   -0.8045   51.0416 H       1  ZINC001220171460    0.1000
     43 H43         5.6328    0.7294   51.7607 H       1  ZINC001220171460    0.1000
@<TRIPOS>BOND
     1     1     2    1
     2     1    27    1
     3     1    28    1
     4     1    29    1
     5     2     3    1
     6     3    10   ar
     7     3     4   ar
     8     4     5   ar
     9     4    30    1
    10     5     6    1
    11     5     7   ar
    12     7     8    1
    13     7     9   ar
    14     9    10   ar
    15     9    31    1
    16    10    11    1
    17    11    12   am
    18    11    32    1
    19    12    13    2
    20    12    14   am
    21    14    15    1
    22    14    33    1
    23    15    16    1
    24    15    34    1
    25    15    35    1
    26    16    17    1
    27    16    36    1
    28    16    37    1
    29    17    18    1
    30    17    19    1
    31    17    23    1
    32    19    20    1
    33    19    38    1
    34    20    22    1
    35    20    21    1
    36    20    39    1
    37    21    22    1
    38    21    40    1
    39    21    41    1
    40    22    42    1
    41    22    43    1
    42    23    24    1
    43    23    25    1
    44    23    26    1
@<TRIPOS>SUBSTRUCTURE
     1 ZINC001220171460        1 TEMP              0 ****  ****    0 ROOT


##########                                Name:    ZINC001162683355
##########                DOCK_Rotatable_Bonds:                   5
##########                         Heavy_Atoms:                  25
##########                    Molecular_Weight:             336.437
##########                DOCK_Rotatable_Bonds:                   5
##########                       Formal_Charge:          -0.0100002
##########                     HBond_Acceptors:                   5
##########                        HBond_Donors:                   1
##########                         Heavy_Atoms:                  25
##########                          Grid_Score:          -30.092438
##########                     Grid_vdw_energy:          -30.516840
##########                      Grid_es_energy:            0.424402
##########           Internal_energy_repulsive:           13.215542

@<TRIPOS>MOLECULE
ZINC001162683355
 49 52 1 0 0
SMALL
USER_CHARGES


@<TRIPOS>ATOM
      1 C1         -8.4603    0.6929   53.4489 C.3     1  ZINC001162683355    0.0200
      2 N2         -7.6232    0.8990   52.2595 N.3     1  ZINC001162683355   -0.5400
      3 C3         -6.7525   -0.2611   52.0206 C.3     1  ZINC001162683355    0.0100
      4 C4         -5.9430   -0.0302   50.7417 C.3     1  ZINC001162683355    0.0600
      5 O5         -5.2019    1.1867   50.8658 O.3     1  ZINC001162683355   -0.3800
      6 C6         -6.0189    2.3372   51.0985 C.3     1  ZINC001162683355    0.0800
      7 H7         -6.6977    2.4778   50.2572 H       1  ZINC001162683355    0.0700
      8 C8         -5.1298    3.5731   51.2497 C.3     1  ZINC001162683355    0.1500
      9 N9         -4.0386    3.2787   52.1817 N.pl3   1  ZINC001162683355   -0.7300
     10 C10        -2.7519    3.0640   51.7002 C.ar    1  ZINC001162683355    0.4300
     11 C11        -1.6483    3.3634   52.5025 C.ar    1  ZINC001162683355   -0.0100
     12 C12        -0.3607    3.1337   51.9843 C.ar    1  ZINC001162683355   -0.0400
     13 C13        -0.2394    2.6151   50.6881 C.ar    1  ZINC001162683355   -0.1800
     14 C14        -1.3729    2.3519   49.9754 C.ar    1  ZINC001162683355    0.1000
     15 N15        -2.5752    2.5761   50.4834 N.ar    1  ZINC001162683355   -0.5400
     16 C16         0.5752    3.5331   53.0310 C.2     1  ZINC001162683355   -0.2200
     17 C17        -0.1601    3.9662   54.0706 C.2     1  ZINC001162683355    0.0800
     18 N18        -1.4895    3.8665   53.7736 N.pl3   1  ZINC001162683355   -0.4600
     19 C19        -2.5832    4.2446   54.6719 C.3     1  ZINC001162683355    0.1500
     20 C20        -2.2192    3.8794   56.0880 C.ar    1  ZINC001162683355   -0.1100
     21 C21        -2.5696    4.7178   57.1297 C.ar    1  ZINC001162683355   -0.1000
     22 C22        -2.2395    4.3807   58.4291 C.ar    1  ZINC001162683355   -0.1200
     23 C23        -1.5510    3.2098   58.6858 C.ar    1  ZINC001162683355   -0.1100
     24 C24        -1.1960    2.3740   57.6434 C.ar    1  ZINC001162683355   -0.1200
     25 C25        -1.5300    2.7090   56.3446 C.ar    1  ZINC001162683355   -0.1000
     26 C26        -6.8292    2.1302   52.3810 C.3     1  ZINC001162683355    0.0300
     27 H27        -7.8253    0.6191   54.3317 H       1  ZINC001162683355    0.0300
     28 H28        -9.1438    1.5343   53.5624 H       1  ZINC001162683355    0.0700
     29 H29        -9.0330   -0.2276   53.3352 H       1  ZINC001162683355    0.0700
     30 H30        -7.3627   -1.1572   51.9083 H       1  ZINC001162683355    0.0900
     31 H31        -6.0730   -0.3859   52.8638 H       1  ZINC001162683355    0.0500
     32 H32        -6.6201    0.0411   49.8904 H       1  ZINC001162683355    0.0600
     33 H33        -5.2547   -0.8618   50.5907 H       1  ZINC001162683355    0.1000
     34 H34        -5.7230    4.4024   51.6351 H       1  ZINC001162683355    0.0700
     35 H35        -4.7153    3.8434   50.2785 H       1  ZINC001162683355    0.0800
     36 H36        -4.2137    3.2335   53.1347 H       1  ZINC001162683355    0.4000
     37 H37         0.7343    2.4267   50.2606 H       1  ZINC001162683355    0.1300
     38 H38        -1.2878    1.9517   48.9759 H       1  ZINC001162683355    0.1500
     39 H39         1.6532    3.4929   52.9788 H       1  ZINC001162683355    0.1500
     40 H40         0.2411    4.3358   55.0028 H       1  ZINC001162683355    0.1700
     41 H41        -3.4910    3.7152   54.3821 H       1  ZINC001162683355    0.0900
     42 H42        -2.7526    5.3193   54.6059 H       1  ZINC001162683355    0.0900
     43 H43        -3.1042    5.6344   56.9289 H       1  ZINC001162683355    0.1200
     44 H44        -2.5171    5.0335   59.2435 H       1  ZINC001162683355    0.1300
     45 H45        -1.2908    2.9478   59.7007 H       1  ZINC001162683355    0.1300
     46 H46        -0.6581    1.4593   57.8440 H       1  ZINC001162683355    0.1300
     47 H47        -1.2526    2.0561   55.5302 H       1  ZINC001162683355    0.1200
     48 H48        -6.1510    2.0436   53.2299 H       1  ZINC001162683355    0.0500
     49 H49        -7.4953    2.9797   52.5317 H       1  ZINC001162683355    0.0900
@<TRIPOS>BOND
     1     1     2    1
     2     1    27    1
     3     1    28    1
     4     1    29    1
     5     2    26    1
     6     2     3    1
     7     3     4    1
     8     3    30    1
     9     3    31    1
    10     4     5    1
    11     4    32    1
    12     4    33    1
    13     5     6    1
    14     6     7    1
    15     6     8    1
    16     6    26    1
    17     8     9    1
    18     8    34    1
    19     8    35    1
    20     9    10    1
    21     9    36    1
    22    10    15   ar
    23    10    11   ar
    24    11    18    1
    25    11    12   ar
    26    12    13   ar
    27    12    16    1
    28    13    14   ar
    29    13    37    1
    30    14    15   ar
    31    14    38    1
    32    16    17    2
    33    16    39    1
    34    17    18    1
    35    17    40    1
    36    18    19    1
    37    19    20    1
    38    19    41    1
    39    19    42    1
    40    20    25   ar
    41    20    21   ar
    42    21    22   ar
    43    21    43    1
    44    22    23   ar
    45    22    44    1
    46    23    24   ar
    47    23    45    1
    48    24    25   ar
    49    24    46    1
    50    25    47    1
    51    26    48    1
    52    26    49    1
@<TRIPOS>SUBSTRUCTURE
     1 ZINC001162683355        1 TEMP              0 ****  ****    0 ROOT


##########                                Name:    ZINC000288921983
##########                DOCK_Rotatable_Bonds:                   6
##########                         Heavy_Atoms:                  26
##########                    Molecular_Weight:             356.428
##########                DOCK_Rotatable_Bonds:                   6
##########                       Formal_Charge:           0.0199997
##########                     HBond_Acceptors:                   8
##########                        HBond_Donors:                   1
##########                         Heavy_Atoms:                  26
##########                          Grid_Score:          -30.084620
##########                     Grid_vdw_energy:          -29.288332
##########                      Grid_es_energy:           -0.796288
##########           Internal_energy_repulsive:           59.627106

@<TRIPOS>MOLECULE
ZINC000288921983
 50 53 1 0 0
SMALL
USER_CHARGES


@<TRIPOS>ATOM
      1 C1        -15.6138   -3.0107   59.2951 C.3     1  ZINC000288921983   -0.1400
      2 C2        -15.0076   -3.6244   58.0315 C.3     1  ZINC000288921983   -0.0500
      3 C3        -13.8773   -2.7553   57.5433 C.ar    1  ZINC000288921983    0.3000
      4 N4        -12.8085   -3.3268   57.0255 N.ar    1  ZINC000288921983   -0.5000
      5 C5        -11.7952   -2.5992   56.5857 C.ar    1  ZINC000288921983    0.1300
      6 C6        -11.8703   -1.2119   56.6764 C.ar    1  ZINC000288921983    0.0500
      7 N7        -10.8206   -0.4045   56.2224 N.am    1  ZINC000288921983   -0.6700
      8 C8         -9.7937   -0.1092   57.0438 C.2     1  ZINC000288921983    0.7100
      9 O9         -9.7791   -0.5439   58.1792 O.2     1  ZINC000288921983   -0.5500
     10 N10        -8.7832    0.6680   56.6068 N.am    1  ZINC000288921983   -0.6200
     11 C11        -8.7868    1.2008   55.2375 C.3     1  ZINC000288921983    0.1100
     12 C12        -8.6065    2.7209   55.2995 C.3     1  ZINC000288921983   -0.1400
     13 C13        -7.3427    3.0485   56.0981 C.3     1  ZINC000288921983   -0.1200
     14 C14        -7.4892    2.5208   57.5271 C.3     1  ZINC000288921983   -0.1300
     15 C15        -7.6598    1.0035   57.4924 C.3     1  ZINC000288921983    0.2700
     16 H16        -6.7497    0.5422   57.1092 H       1  ZINC000288921983    0.1100
     17 C17        -7.9375    0.4944   58.8834 C.2     1  ZINC000288921983    0.1700
     18 N18        -7.4141   -0.5627   59.4361 N.2     1  ZINC000288921983   -0.2500
     19 N19        -7.8773   -0.6944   60.6292 N.2     1  ZINC000288921983   -0.2700
     20 C20        -8.7120    0.2743   60.8783 C.2     1  ZINC000288921983    0.1800
     21 C21        -9.4733    0.4878   62.1612 C.3     1  ZINC000288921983   -0.0300
     22 C22        -8.6102    0.3272   63.4237 C.3     1  ZINC000288921983   -0.1200
     23 C23        -8.2913    1.8266   63.3011 C.3     1  ZINC000288921983   -0.1400
     24 C24        -9.6249    1.9683   62.5485 C.3     1  ZINC000288921983   -0.1200
     25 O25        -8.7658    1.0509   59.7831 O.3     1  ZINC000288921983   -0.2200
     26 C26       -13.0170   -0.6487   57.2298 C.ar    1  ZINC000288921983    0.1600
     27 N27       -13.9888   -1.4458   57.6417 N.ar    1  ZINC000288921983   -0.5000
     28 H28       -16.4313   -3.6394   59.6481 H       1  ZINC000288921983    0.0700
     29 H29       -14.8487   -2.9415   60.0684 H       1  ZINC000288921983    0.0600
     30 H30       -15.9932   -2.0142   59.0690 H       1  ZINC000288921983    0.0600
     31 H31       -14.6281   -4.6210   58.2574 H       1  ZINC000288921983    0.0900
     32 H32       -15.7727   -3.6937   57.2581 H       1  ZINC000288921983    0.0900
     33 H33       -10.9223   -3.0743   56.1629 H       1  ZINC000288921983    0.1700
     34 H34       -10.8323   -0.0577   55.3165 H       1  ZINC000288921983    0.4100
     35 H35        -7.9673    0.7585   54.6711 H       1  ZINC000288921983    0.0800
     36 H36        -9.7358    0.9648   54.7561 H       1  ZINC000288921983    0.0800
     37 H37        -8.5111    3.1174   54.2886 H       1  ZINC000288921983    0.0900
     38 H38        -9.4716    3.1703   55.7869 H       1  ZINC000288921983    0.0700
     39 H39        -6.4813    2.5782   55.6238 H       1  ZINC000288921983    0.0700
     40 H40        -7.1986    4.1287   56.1228 H       1  ZINC000288921983    0.0800
     41 H41        -6.5985    2.7750   58.1018 H       1  ZINC000288921983    0.0900
     42 H42        -8.3648    2.9721   57.9936 H       1  ZINC000288921983    0.0900
     43 H43       -10.4087   -0.0706   62.1961 H       1  ZINC000288921983    0.1000
     44 H44        -9.1838    0.0743   64.3154 H       1  ZINC000288921983    0.1000
     45 H45        -7.7426   -0.3168   63.2805 H       1  ZINC000288921983    0.0800
     46 H46        -8.2723    2.3485   64.2578 H       1  ZINC000288921983    0.0700
     47 H47        -7.4175    2.0382   62.6849 H       1  ZINC000288921983    0.1000
     48 H48        -9.5764    2.6491   61.6986 H       1  ZINC000288921983    0.0700
     49 H49       -10.4758    2.1641   63.2009 H       1  ZINC000288921983    0.1000
     50 H50       -13.1132    0.4234   57.3179 H       1  ZINC000288921983    0.1800
@<TRIPOS>BOND
     1     1     2    1
     2     1    28    1
     3     1    29    1
     4     1    30    1
     5     2     3    1
     6     2    31    1
     7     2    32    1
     8     3    27   ar
     9     3     4   ar
    10     4     5   ar
    11     5     6   ar
    12     5    33    1
    13     6     7    1
    14     6    26   ar
    15     7     8   am
    16     7    34    1
    17     8     9    2
    18     8    10   am
    19    10    15    1
    20    10    11    1
    21    11    12    1
    22    11    35    1
    23    11    36    1
    24    12    13    1
    25    12    37    1
    26    12    38    1
    27    13    14    1
    28    13    39    1
    29    13    40    1
    30    14    15    1
    31    14    41    1
    32    14    42    1
    33    15    16    1
    34    15    17    1
    35    17    25    1
    36    17    18    2
    37    18    19    1
    38    19    20    2
    39    20    21    1
    40    20    25    1
    41    21    24    1
    42    21    22    1
    43    21    43    1
    44    22    23    1
    45    22    44    1
    46    22    45    1
    47    23    24    1
    48    23    46    1
    49    23    47    1
    50    24    48    1
    51    24    49    1
    52    26    27   ar
    53    26    50    1
@<TRIPOS>SUBSTRUCTURE
     1 ZINC000288921983        1 TEMP              0 ****  ****    0 ROOT


##########                                Name:    ZINC000020646552
##########                DOCK_Rotatable_Bonds:                   5
##########                         Heavy_Atoms:                  29
##########                    Molecular_Weight:             412.556
##########                DOCK_Rotatable_Bonds:                   5
##########                       Formal_Charge:          -0.0200012
##########                     HBond_Acceptors:                   7
##########                        HBond_Donors:                   0
##########                         Heavy_Atoms:                  29
##########                          Grid_Score:          -30.072693
##########                     Grid_vdw_energy:          -30.965038
##########                      Grid_es_energy:            0.892346
##########           Internal_energy_repulsive:           16.745373

@<TRIPOS>MOLECULE
ZINC000020646552
 57 60 1 0 0
SMALL
USER_CHARGES


@<TRIPOS>ATOM
      1 C1          5.9263    1.1679   48.7447 C.3     1  ZINC000020646552    0.0200
      2 N2          4.5211    0.7541   48.8553 N.3     1  ZINC000020646552   -0.5400
      3 C3          3.8288    0.8916   47.5670 C.3     1  ZINC000020646552    0.0400
      4 C4          2.4264    0.2838   47.6770 C.3     1  ZINC000020646552    0.1200
      5 N5          1.7385    0.9003   48.8216 N.am    1  ZINC000020646552   -0.6100
      6 C6          0.5066    1.4298   48.6849 C.2     1  ZINC000020646552    0.5300
      7 O7         -0.0499    1.4004   47.6078 O.2     1  ZINC000020646552   -0.5200
      8 C8         -0.1791    2.0582   49.8706 C.3     1  ZINC000020646552   -0.1500
      9 S9         -1.9656    1.7973   49.7424 S.3     1  ZINC000020646552    0.0500
     10 C10        -2.4966    2.5800   51.2290 C.ar    1  ZINC000020646552    0.1500
     11 N11        -1.6214    3.1945   52.0175 N.ar    1  ZINC000020646552   -0.5200
     12 C12        -2.0204    3.7833   53.1362 C.ar    1  ZINC000020646552    0.3800
     13 C13        -1.0183    4.4630   53.9928 C.ar    1  ZINC000020646552   -0.0500
     14 C14        -1.4178    5.0980   55.1674 C.ar    1  ZINC000020646552   -0.0700
     15 C15        -0.4809    5.7285   55.9609 C.ar    1  ZINC000020646552   -0.1300
     16 C16         0.8523    5.7309   55.5922 C.ar    1  ZINC000020646552   -0.1000
     17 C17         1.2545    5.1027   54.4272 C.ar    1  ZINC000020646552   -0.1300
     18 C18         0.3271    4.4642   53.6290 C.ar    1  ZINC000020646552   -0.0700
     19 N19        -3.2922    3.7801   53.5081 N.ar    1  ZINC000020646552   -0.5200
     20 C20        -4.2186    3.1841   52.7680 C.ar    1  ZINC000020646552    0.2100
     21 C21        -3.8477    2.5687   51.5944 C.ar    1  ZINC000020646552   -0.2100
     22 C22        -4.8512    1.8870   50.7058 C.3     1  ZINC000020646552    0.1100
     23 O23        -6.0683    1.6632   51.4185 O.3     1  ZINC000020646552   -0.3600
     24 C24        -6.5724    2.8410   52.0584 C.3     1  ZINC000020646552    0.1100
     25 C25        -6.5952    3.9989   51.0586 C.3     1  ZINC000020646552   -0.1800
     26 C26        -7.9890    2.5793   52.5738 C.3     1  ZINC000020646552   -0.1400
     27 C27        -5.6529    3.1966   53.2267 C.3     1  ZINC000020646552   -0.0900
     28 C28         2.4304    0.9232   50.1193 C.3     1  ZINC000020646552    0.1100
     29 C29         3.8326    1.5058   49.9131 C.3     1  ZINC000020646552    0.0400
     30 H30         6.4346    0.9846   49.6912 H       1  ZINC000020646552    0.0700
     31 H31         6.4124    0.5958   47.9544 H       1  ZINC000020646552    0.0700
     32 H32         5.9745    2.2304   48.5063 H       1  ZINC000020646552    0.0300
     33 H33         3.7484    1.9474   47.3081 H       1  ZINC000020646552    0.0400
     34 H34         4.3921    0.3690   46.7938 H       1  ZINC000020646552    0.0900
     35 H35         1.8678    0.4841   46.7628 H       1  ZINC000020646552    0.1000
     36 H36         2.5048   -0.7921   47.8332 H       1  ZINC000020646552    0.0800
     37 H37         0.1899    1.6006   50.7884 H       1  ZINC000020646552    0.1300
     38 H38         0.0316    3.1275   49.8876 H       1  ZINC000020646552    0.1200
     39 H39        -2.4584    5.0970   55.4560 H       1  ZINC000020646552    0.1400
     40 H40        -0.7893    6.2212   56.8711 H       1  ZINC000020646552    0.1300
     41 H41         1.5820    6.2255   56.2161 H       1  ZINC000020646552    0.1300
     42 H42         2.2967    5.1081   54.1440 H       1  ZINC000020646552    0.1300
     43 H43         0.6421    3.9740   52.7197 H       1  ZINC000020646552    0.1300
     44 H44        -5.0509    2.5155   49.8379 H       1  ZINC000020646552    0.0800
     45 H45        -4.4473    0.9313   50.3716 H       1  ZINC000020646552    0.1100
     46 H46        -7.2386    3.7403   50.2177 H       1  ZINC000020646552    0.0700
     47 H47        -6.9792    4.8941   51.5480 H       1  ZINC000020646552    0.0700
     48 H48        -5.5840    4.1875   50.6978 H       1  ZINC000020646552    0.0600
     49 H49        -7.9690    1.7583   53.2905 H       1  ZINC000020646552    0.0700
     50 H50        -8.3702    3.4771   53.0603 H       1  ZINC000020646552    0.0800
     51 H51        -8.6369    2.3160   51.7377 H       1  ZINC000020646552    0.0700
     52 H52        -5.7791    2.4637   54.0237 H       1  ZINC000020646552    0.1000
     53 H53        -5.9098    4.1873   53.6019 H       1  ZINC000020646552    0.1000
     54 H54         1.8743    1.5464   50.8197 H       1  ZINC000020646552    0.0900
     55 H55         2.5092   -0.0912   50.5102 H       1  ZINC000020646552    0.0800
     56 H56         4.3987    1.4288   50.8414 H       1  ZINC000020646552    0.0900
     57 H57         3.7521    2.5531   49.6216 H       1  ZINC000020646552    0.0400
@<TRIPOS>BOND
     1     1     2    1
     2     1    30    1
     3     1    31    1
     4     1    32    1
     5     2    29    1
     6     2     3    1
     7     3     4    1
     8     3    33    1
     9     3    34    1
    10     4     5    1
    11     4    35    1
    12     4    36    1
    13     5     6   am
    14     5    28    1
    15     6     7    2
    16     6     8    1
    17     8     9    1
    18     8    37    1
    19     8    38    1
    20     9    10    1
    21    10    21   ar
    22    10    11   ar
    23    11    12   ar
    24    12    13    1
    25    12    19   ar
    26    13    18   ar
    27    13    14   ar
    28    14    15   ar
    29    14    39    1
    30    15    16   ar
    31    15    40    1
    32    16    17   ar
    33    16    41    1
    34    17    18   ar
    35    17    42    1
    36    18    43    1
    37    19    20   ar
    38    20    27    1
    39    20    21   ar
    40    21    22    1
    41    22    23    1
    42    22    44    1
    43    22    45    1
    44    23    24    1
    45    24    25    1
    46    24    26    1
    47    24    27    1
    48    25    46    1
    49    25    47    1
    50    25    48    1
    51    26    49    1
    52    26    50    1
    53    26    51    1
    54    27    52    1
    55    27    53    1
    56    28    29    1
    57    28    54    1
    58    28    55    1
    59    29    56    1
    60    29    57    1
@<TRIPOS>SUBSTRUCTURE
     1 ZINC000020646552        1 TEMP              0 ****  ****    0 ROOT


##########                                Name:    ZINC000668548901
##########                DOCK_Rotatable_Bonds:                   9
##########                         Heavy_Atoms:                  26
##########                    Molecular_Weight:             374.464
##########                DOCK_Rotatable_Bonds:                   9
##########                       Formal_Charge:         3.53903e-07
##########                     HBond_Acceptors:                   8
##########                        HBond_Donors:                   3
##########                         Heavy_Atoms:                  26
##########                          Grid_Score:          -30.070993
##########                     Grid_vdw_energy:          -29.893354
##########                      Grid_es_energy:           -0.177639
##########           Internal_energy_repulsive:           12.029739

@<TRIPOS>MOLECULE
ZINC000668548901
 48 50 1 0 0
SMALL
USER_CHARGES


@<TRIPOS>ATOM
      1 O1        -11.4383   -2.1309   57.0700 O.2     1  ZINC000668548901   -0.5700
      2 C2        -12.2710   -1.2687   57.2737 C.2     1  ZINC000668548901    0.7100
      3 N3        -12.0128    0.0105   56.9366 N.am    1  ZINC000668548901   -0.6800
      4 C4        -10.7875    0.3463   56.3591 C.ar    1  ZINC000668548901    0.2200
      5 C5         -9.8034    1.0026   57.1002 C.ar    1  ZINC000668548901   -0.1700
      6 C6         -8.6049    1.3190   56.4971 C.ar    1  ZINC000668548901    0.1200
      7 N7         -8.3789    1.0103   55.2337 N.ar    1  ZINC000668548901   -0.4300
      8 C8         -9.2856    0.3874   54.4939 C.ar    1  ZINC000668548901    0.1100
      9 S9         -8.9245    0.0018   52.8130 S.3     1  ZINC000668548901    0.0900
     10 C10        -7.5956    1.0945   52.4323 C.ar    1  ZINC000668548901    0.0900
     11 C11        -7.7803    2.4690   52.5416 C.ar    1  ZINC000668548901   -0.1500
     12 C12        -6.7283    3.3152   52.2400 C.ar    1  ZINC000668548901   -0.0700
     13 C13        -5.5225    2.7563   51.8378 C.ar    1  ZINC000668548901   -0.1700
     14 C14        -5.4091    1.3827   51.7511 C.ar    1  ZINC000668548901    0.1000
     15 N15        -6.4278    0.5996   52.0499 N.ar    1  ZINC000668548901   -0.4200
     16 C16       -10.5146    0.0302   55.0322 C.ar    1  ZINC000668548901   -0.1800
     17 N17       -13.4543   -1.5930   57.8314 N.am    1  ZINC000668548901   -0.7200
     18 C18       -13.7349   -2.9833   58.1977 C.3     1  ZINC000668548901    0.1700
     19 H19       -12.8457   -3.4277   58.6452 H       1  ZINC000668548901    0.1000
     20 C20       -14.1243   -3.7720   56.9458 C.3     1  ZINC000668548901    0.0600
     21 O21       -14.4835   -5.1049   57.3150 O.3     1  ZINC000668548901   -0.5700
     22 C22       -14.8865   -3.0231   59.2043 C.3     1  ZINC000668548901   -0.1300
     23 H23       -15.1870   -4.0571   59.3733 H       1  ZINC000668548901    0.1000
     24 C24       -16.0746   -2.2280   58.6544 C.3     1  ZINC000668548901   -0.1200
     25 C25       -17.1915   -2.2095   59.7026 C.3     1  ZINC000668548901   -0.1600
     26 C26       -16.6482   -1.6162   61.0052 C.3     1  ZINC000668548901    0.0600
     27 O27       -15.5263   -2.3841   61.4454 O.3     1  ZINC000668548901   -0.3800
     28 C28       -14.4318   -2.3998   60.5266 C.3     1  ZINC000668548901    0.0700
     29 H29       -12.6787    0.6977   57.0954 H       1  ZINC000668548901    0.4100
     30 H30        -9.9792    1.2599   58.1343 H       1  ZINC000668548901    0.1500
     31 H31        -7.8402    1.8267   57.0662 H       1  ZINC000668548901    0.1600
     32 H32        -8.7321    2.8700   52.8572 H       1  ZINC000668548901    0.1400
     33 H33        -6.8424    4.3865   52.3153 H       1  ZINC000668548901    0.1400
     34 H34        -4.6820    3.3893   51.5948 H       1  ZINC000668548901    0.1400
     35 H35        -4.4732    0.9438   51.4383 H       1  ZINC000668548901    0.1600
     36 H36       -11.2514   -0.4773   54.4272 H       1  ZINC000668548901    0.1400
     37 H37       -14.1202   -0.9057   57.9902 H       1  ZINC000668548901    0.4000
     38 H38       -14.9722   -3.2882   56.4608 H       1  ZINC000668548901    0.0500
     39 H39       -13.2798   -3.8008   56.2572 H       1  ZINC000668548901    0.0600
     40 H40       -15.2421   -5.1566   57.9125 H       1  ZINC000668548901    0.3800
     41 H41       -15.7611   -1.2068   58.4376 H       1  ZINC000668548901    0.0700
     42 H42       -16.4386   -2.7005   57.7421 H       1  ZINC000668548901    0.0700
     43 H43       -18.0195   -1.5992   59.3419 H       1  ZINC000668548901    0.0800
     44 H44       -17.5389   -3.2267   59.8827 H       1  ZINC000668548901    0.0700
     45 H45       -16.3384   -0.5853   60.8338 H       1  ZINC000668548901    0.0500
     46 H46       -17.4268   -1.6399   61.7678 H       1  ZINC000668548901    0.1000
     47 H47       -13.6145   -2.9872   60.9451 H       1  ZINC000668548901    0.1000
     48 H48       -14.0924   -1.3796   60.3482 H       1  ZINC000668548901    0.0500
@<TRIPOS>BOND
     1     1     2    2
     2     2     3   am
     3     2    17   am
     4     3     4    1
     5     3    29    1
     6     4    16   ar
     7     4     5   ar
     8     5     6   ar
     9     5    30    1
    10     6     7   ar
    11     6    31    1
    12     7     8   ar
    13     8     9    1
    14     8    16   ar
    15     9    10    1
    16    10    15   ar
    17    10    11   ar
    18    11    12   ar
    19    11    32    1
    20    12    13   ar
    21    12    33    1
    22    13    14   ar
    23    13    34    1
    24    14    15   ar
    25    14    35    1
    26    16    36    1
    27    17    18    1
    28    17    37    1
    29    18    19    1
    30    18    20    1
    31    18    22    1
    32    20    21    1
    33    20    38    1
    34    20    39    1
    35    21    40    1
    36    22    23    1
    37    22    28    1
    38    22    24    1
    39    24    25    1
    40    24    41    1
    41    24    42    1
    42    25    26    1
    43    25    43    1
    44    25    44    1
    45    26    27    1
    46    26    45    1
    47    26    46    1
    48    27    28    1
    49    28    47    1
    50    28    48    1
@<TRIPOS>SUBSTRUCTURE
     1 ZINC000668548901        1 TEMP              0 ****  ****    0 ROOT


##########                                Name:    ZINC000350493047
##########                DOCK_Rotatable_Bonds:                   7
##########                         Heavy_Atoms:                  24
##########                    Molecular_Weight:             330.387
##########                DOCK_Rotatable_Bonds:                   7
##########                       Formal_Charge:          -0.0300002
##########                     HBond_Acceptors:                   7
##########                        HBond_Donors:                   3
##########                         Heavy_Atoms:                  24
##########                          Grid_Score:          -30.043741
##########                     Grid_vdw_energy:          -29.476984
##########                      Grid_es_energy:           -0.566758
##########           Internal_energy_repulsive:            4.549328

@<TRIPOS>MOLECULE
ZINC000350493047
 46 48 1 0 0
SMALL
USER_CHARGES


@<TRIPOS>ATOM
      1 C1          4.7896    0.1945   50.6637 C.3     1  <0>        -0.1600
      2 C2          3.5539   -0.0572   49.7972 C.3     1  <0>         0.2600
      3 H3          3.1113   -1.0164   50.0656 H       1  <0>         0.1200
      4 N4          3.9435   -0.0772   48.3851 N.am    1  <0>        -0.7400
      5 C5          3.1069   -0.5919   47.4624 C.2     1  <0>         0.7100
      6 N6          3.4647   -0.6089   46.1630 N.am    1  <0>        -0.8600
      7 O7          2.0293   -1.0411   47.8021 O.2     1  <0>        -0.5900
      8 C8          2.5481    1.0416   50.0253 C.2     1  <0>         0.1700
      9 N9          2.7985    2.3173   50.0558 N.2     1  <0>        -0.3800
     10 O10         1.7807    2.9451   50.2586 O.3     1  <0>         0.0900
     11 C11         0.7450    2.1003   50.3816 C.2     1  <0>         0.2400
     12 C12        -0.6640    2.4629   50.6339 C.ar    1  <0>        -0.0800
     13 C13        -0.9966    3.2564   51.7344 C.ar    1  <0>        -0.0200
     14 C14        -2.3123    3.5925   51.9664 C.ar    1  <0>        -0.2200
     15 C15        -3.3079    3.1430   51.1076 C.ar    1  <0>         0.1700
     16 O16        -4.6034    3.4762   51.3399 O.3     1  <0>        -0.3000
     17 C17        -5.3271    2.6616   52.2645 C.3     1  <0>         0.0800
     18 C18        -6.2809    3.5383   53.0784 C.3     1  <0>        -0.1500
     19 C19        -7.0558    2.6662   54.0684 C.3     1  <0>        -0.1200
     20 C20        -7.8592    1.6143   53.3011 C.3     1  <0>        -0.1300
     21 C21        -6.9053    0.7376   52.4871 C.3     1  <0>        -0.1200
     22 C22        -6.1305    1.6097   51.4972 C.3     1  <0>        -0.1200
     23 C23        -2.9811    2.3540   50.0117 C.ar    1  <0>        -0.1600
     24 C24        -1.6672    2.0182   49.7695 C.ar    1  <0>        -0.0300
     25 N25         1.2313    0.8806   50.2279 N.2     1  <0>        -0.4700
     26 H26         5.2322    1.1537   50.3953 H       1  <0>         0.0600
     27 H27         4.4997    0.2094   51.7143 H       1  <0>         0.0700
     28 H28         5.5170   -0.6002   50.4986 H       1  <0>         0.0800
     29 H29         4.8037    0.2801   48.1142 H       1  <0>         0.4000
     30 H30         2.8620   -0.9783   45.4989 H       1  <0>         0.4000
     31 H31         4.3248   -0.2516   45.8921 H       1  <0>         0.4200
     32 H32        -0.2234    3.6055   52.4027 H       1  <0>         0.1400
     33 H33        -2.5703    4.2059   52.8169 H       1  <0>         0.1400
     34 H34        -4.6270    2.1652   52.9366 H       1  <0>         0.0800
     35 H35        -5.7085    4.2877   53.6251 H       1  <0>         0.0700
     36 H36        -6.9810    4.0347   52.4063 H       1  <0>         0.0800
     37 H37        -6.3557    2.1698   54.7404 H       1  <0>         0.0600
     38 H38        -7.7353    3.2907   54.6482 H       1  <0>         0.0700
     39 H39        -8.4112    0.9929   54.0064 H       1  <0>         0.0700
     40 H40        -8.5592    2.1106   52.6290 H       1  <0>         0.0700
     41 H41        -6.2053    0.2412   53.1592 H       1  <0>         0.0700
     42 H42        -7.4777   -0.0118   51.9405 H       1  <0>         0.0700
     43 H43        -6.8306    2.1061   50.8251 H       1  <0>         0.0800
     44 H44        -5.4510    0.9851   50.9173 H       1  <0>         0.0700
     45 H45        -3.7579    2.0069   49.3463 H       1  <0>         0.1400
     46 H46        -1.4139    1.4051   48.9172 H       1  <0>         0.1400
@<TRIPOS>BOND
     1     1     2    1
     2     1    26    1
     3     1    27    1
     4     1    28    1
     5     2     3    1
     6     2     4    1
     7     2     8    1
     8     4     5   am
     9     4    29    1
    10     5     6   am
    11     5     7    2
    12     6    30    1
    13     6    31    1
    14     8    25    1
    15     8     9    2
    16     9    10    1
    17    10    11    1
    18    11    12    1
    19    11    25    2
    20    12    24   ar
    21    12    13   ar
    22    13    14   ar
    23    13    32    1
    24    14    15   ar
    25    14    33    1
    26    15    16    1
    27    15    23   ar
    28    16    17    1
    29    17    22    1
    30    17    18    1
    31    17    34    1
    32    18    19    1
    33    18    35    1
    34    18    36    1
    35    19    20    1
    36    19    37    1
    37    19    38    1
    38    20    21    1
    39    20    39    1
    40    20    40    1
    41    21    22    1
    42    21    41    1
    43    21    42    1
    44    22    43    1
    45    22    44    1
    46    23    24   ar
    47    23    45    1
    48    24    46    1
@<TRIPOS>SUBSTRUCTURE
     1 <0>         1 TEMP              0 ****  ****    0 ROOT


##########                                Name:    ZINC001139743874
##########                DOCK_Rotatable_Bonds:                   5
##########                         Heavy_Atoms:                  28
##########                    Molecular_Weight:             382.506
##########                DOCK_Rotatable_Bonds:                   5
##########                       Formal_Charge:           0.0199992
##########                     HBond_Acceptors:                   6
##########                        HBond_Donors:                   0
##########                         Heavy_Atoms:                  28
##########                          Grid_Score:          -30.030899
##########                     Grid_vdw_energy:          -29.675610
##########                      Grid_es_energy:           -0.355289
##########           Internal_energy_repulsive:           18.396133

@<TRIPOS>MOLECULE
ZINC001139743874
 58 61 1 0 0
SMALL
USER_CHARGES


@<TRIPOS>ATOM
      1 C1         -9.7475    2.0530   62.3321 C.3     1  ZINC001139743874   -0.1800
      2 C2         -9.4382    0.6701   62.9093 C.3     1  ZINC001139743874    0.1400
      3 C3         -8.0237    0.6657   63.4925 C.3     1  ZINC001139743874   -0.1800
      4 C4        -10.4458    0.3411   64.0126 C.3     1  ZINC001139743874   -0.1400
      5 O5         -9.5308   -0.3255   61.8565 O.3     1  ZINC001139743874   -0.3600
      6 C6        -10.5943   -0.2487   61.0344 C.2     1  ZINC001139743874    0.6500
      7 O7        -11.7121   -0.1322   61.4964 O.2     1  ZINC001139743874   -0.5700
      8 N8        -10.4190   -0.3011   59.6992 N.am    1  ZINC001139743874   -0.5900
      9 C9         -9.1120   -0.4380   59.1390 C.3     1  ZINC001139743874    0.1000
     10 C10        -8.3261    0.8872   58.9265 C.3     1  ZINC001139743874   -0.1300
     11 C11        -9.2984    1.9828   58.4011 C.3     1  ZINC001139743874   -0.0900
     12 C12       -10.2893    1.4274   57.4315 C.3     1  ZINC001139743874   -0.0800
     13 C13       -10.4850    2.2324   56.1413 C.3     1  ZINC001139743874    0.0100
     14 N14        -9.4653    1.3349   55.5516 N.3     1  ZINC001139743874   -0.4700
     15 C15        -9.8520    0.9167   54.1976 C.3     1  ZINC001139743874    0.0600
     16 C16        -8.6431    0.9458   53.2983 C.ar    1  ZINC001139743874   -0.1200
     17 C17        -8.0921   -0.2465   52.8328 C.ar    1  ZINC001139743874    0.1500
     18 N18        -7.0411   -0.2584   52.0491 N.ar    1  ZINC001139743874   -0.4600
     19 C19        -6.4519    0.8752   51.6619 C.ar    1  ZINC001139743874    0.0800
     20 C20        -5.3225    0.8592   50.8191 C.ar    1  ZINC001139743874   -0.0400
     21 C21        -4.7677    2.0535   50.4600 C.ar    1  ZINC001139743874   -0.1600
     22 C22        -5.3186    3.2462   50.9258 C.ar    1  ZINC001139743874    0.1300
     23 N23        -6.3692    3.2581   51.7097 N.ar    1  ZINC001139743874   -0.4700
     24 C24        -6.9587    2.1242   52.0968 C.ar    1  ZINC001139743874    0.0800
     25 C25        -8.0909    2.1405   52.9352 C.ar    1  ZINC001139743874   -0.0400
     26 C26        -9.7859    0.2833   56.5438 C.3     1  ZINC001139743874    0.0000
     27 C27       -11.5986    1.1093   58.1602 C.3     1  ZINC001139743874   -0.1300
     28 C28       -11.5903   -0.2235   58.7700 C.3     1  ZINC001139743874    0.1400
     29 H29        -9.0296    2.2875   61.5461 H       1  ZINC001139743874    0.0900
     30 H30       -10.7552    2.0562   61.9167 H       1  ZINC001139743874    0.0600
     31 H31        -9.6780    2.8004   63.1224 H       1  ZINC001139743874    0.0700
     32 H32        -7.9542    1.4131   64.2828 H       1  ZINC001139743874    0.0700
     33 H33        -7.8034   -0.3194   63.9038 H       1  ZINC001139743874    0.0600
     34 H34        -7.3059    0.9001   62.7065 H       1  ZINC001139743874    0.0900
     35 H35       -11.4535    0.3443   63.5971 H       1  ZINC001139743874    0.0700
     36 H36       -10.2255   -0.6440   64.4238 H       1  ZINC001139743874    0.0700
     37 H37       -10.3763    1.0886   64.8029 H       1  ZINC001139743874    0.0800
     38 H38        -8.5254   -1.0808   59.7954 H       1  ZINC001139743874    0.0700
     39 H39        -9.2049   -0.9378   58.1748 H       1  ZINC001139743874    0.0900
     40 H40        -7.8926    1.2091   59.8734 H       1  ZINC001139743874    0.0700
     41 H41        -7.5315    0.7261   58.1979 H       1  ZINC001139743874    0.0800
     42 H42        -9.8333    2.4173   59.2456 H       1  ZINC001139743874    0.0600
     43 H43        -8.7199    2.7645   57.9089 H       1  ZINC001139743874    0.0700
     44 H44       -11.4757    2.1224   55.7002 H       1  ZINC001139743874    0.0700
     45 H45       -10.1648    3.2715   56.2183 H       1  ZINC001139743874    0.0900
     46 H46       -10.2555   -0.0954   54.2312 H       1  ZINC001139743874    0.0600
     47 H47       -10.6099    1.5973   53.8096 H       1  ZINC001139743874    0.0900
     48 H48        -8.5420   -1.1839   53.1249 H       1  ZINC001139743874    0.1700
     49 H49        -4.9068   -0.0733   50.4669 H       1  ZINC001139743874    0.1500
     50 H50        -3.9016    2.0745   49.8151 H       1  ZINC001139743874    0.1500
     51 H51        -4.8686    4.1837   50.6340 H       1  ZINC001139743874    0.1700
     52 H52        -8.5086    3.0732   53.2844 H       1  ZINC001139743874    0.1400
     53 H53        -8.9093   -0.2285   56.9410 H       1  ZINC001139743874    0.1000
     54 H54       -10.5705   -0.4011   56.2214 H       1  ZINC001139743874    0.0700
     55 H55       -11.7588    1.8545   58.9394 H       1  ZINC001139743874    0.0700
     56 H56       -12.4214    1.1645   57.4474 H       1  ZINC001139743874    0.0800
     57 H57       -11.4993   -0.9824   57.9928 H       1  ZINC001139743874    0.0800
     58 H58       -12.5137   -0.3778   59.3282 H       1  ZINC001139743874    0.1000
@<TRIPOS>BOND
     1     1     2    1
     2     1    29    1
     3     1    30    1
     4     1    31    1
     5     2     3    1
     6     2     4    1
     7     2     5    1
     8     3    32    1
     9     3    33    1
    10     3    34    1
    11     4    35    1
    12     4    36    1
    13     4    37    1
    14     5     6    1
    15     6     7    2
    16     6     8   am
    17     8    28    1
    18     8     9    1
    19     9    10    1
    20     9    38    1
    21     9    39    1
    22    10    11    1
    23    10    40    1
    24    10    41    1
    25    11    12    1
    26    11    42    1
    27    11    43    1
    28    12    26    1
    29    12    13    1
    30    12    27    1
    31    13    14    1
    32    13    44    1
    33    13    45    1
    34    14    15    1
    35    14    26    1
    36    15    16    1
    37    15    46    1
    38    15    47    1
    39    16    25   ar
    40    16    17   ar
    41    17    18   ar
    42    17    48    1
    43    18    19   ar
    44    19    24   ar
    45    19    20   ar
    46    20    21   ar
    47    20    49    1
    48    21    22   ar
    49    21    50    1
    50    22    23   ar
    51    22    51    1
    52    23    24   ar
    53    24    25   ar
    54    25    52    1
    55    26    53    1
    56    26    54    1
    57    27    28    1
    58    27    55    1
    59    27    56    1
    60    28    57    1
    61    28    58    1
@<TRIPOS>SUBSTRUCTURE
     1 ZINC001139743874        1 TEMP              0 ****  ****    0 ROOT


##########                                Name:    ZINC001191386213
##########                DOCK_Rotatable_Bonds:                   6
##########                         Heavy_Atoms:                  29
##########                    Molecular_Weight:             392.433
##########                DOCK_Rotatable_Bonds:                   6
##########                       Formal_Charge:               -0.02
##########                     HBond_Acceptors:                   7
##########                        HBond_Donors:                   2
##########                         Heavy_Atoms:                  29
##########                          Grid_Score:          -30.023930
##########                     Grid_vdw_energy:          -29.443380
##########                      Grid_es_energy:           -0.580549
##########           Internal_energy_repulsive:          178.602478

@<TRIPOS>MOLECULE
ZINC001191386213
 50 53 1 0 0
SMALL
USER_CHARGES


@<TRIPOS>ATOM
      1 C1          5.6439   -1.0522   43.8162 C.3     1  ZINC001191386213   -0.1700
      2 C2          5.4415   -0.2396   45.0691 C.2     1  ZINC001191386213    0.5100
      3 O3          6.3953    0.2552   45.6316 O.2     1  ZINC001191386213   -0.5200
      4 N4          4.2007   -0.0628   45.5646 N.am    1  ZINC001191386213   -0.6800
      5 C5          4.0127    0.6918   46.7280 C.ar    1  ZINC001191386213    0.1400
      6 C6          5.1049    1.2591   47.3723 C.ar    1  ZINC001191386213   -0.1400
      7 C7          4.9229    2.0053   48.5213 C.ar    1  ZINC001191386213   -0.1000
      8 C8          3.6551    2.1906   49.0352 C.ar    1  ZINC001191386213   -0.1100
      9 C9          2.5537    1.6248   48.3955 C.ar    1  ZINC001191386213    0.0100
     10 C10         1.1898    1.8233   48.9469 C.2     1  ZINC001191386213    0.0700
     11 N11         0.0705    1.3475   48.4433 N.2     1  ZINC001191386213   -0.2500
     12 N12        -0.9368    1.6994   49.1578 N.pl3   1  ZINC001191386213   -0.3800
     13 C13        -0.5152    2.4575   50.2139 C.2     1  ZINC001191386213   -0.0400
     14 C14        -1.3582    3.0527   51.2635 C.2     1  ZINC001191386213    0.6100
     15 O15        -0.8570    3.7560   52.1201 O.2     1  ZINC001191386213   -0.5100
     16 N16        -2.6854    2.8186   51.2753 N.am    1  ZINC001191386213   -0.6200
     17 C17        -3.4184    1.9921   50.3053 C.3     1  ZINC001191386213    0.0800
     18 C18        -4.9094    2.0347   50.7011 C.3     1  ZINC001191386213   -0.1200
     19 C19        -5.0101    3.3385   51.5362 C.3     1  ZINC001191386213   -0.0600
     20 H20        -5.1147    4.2096   50.8894 H       1  ZINC001191386213    0.1000
     21 C21        -6.1470    3.2619   52.5223 C.ar    1  ZINC001191386213   -0.1100
     22 C22        -7.1068    2.2760   52.3954 C.ar    1  ZINC001191386213   -0.0900
     23 C23        -8.1501    2.2056   53.3000 C.ar    1  ZINC001191386213   -0.1300
     24 C24        -8.2345    3.1212   54.3320 C.ar    1  ZINC001191386213   -0.0900
     25 C25        -7.2758    4.1085   54.4607 C.ar    1  ZINC001191386213   -0.1500
     26 C26        -6.2271    4.1761   53.5595 C.ar    1  ZINC001191386213    0.1100
     27 F27        -5.2895    5.1407   53.6842 F       1  ZINC001191386213   -0.1400
     28 C28        -3.6417    3.3437   52.2669 C.3     1  ZINC001191386213    0.1200
     29 C29         0.8593    2.5490   50.1059 C.2     1  ZINC001191386213   -0.1300
     30 C30         2.7353    0.8783   47.2349 C.ar    1  ZINC001191386213   -0.1000
     31 H31         6.7056   -1.0839   43.5713 H       1  ZINC001191386213    0.1000
     32 H32         5.2779   -2.0662   43.9777 H       1  ZINC001191386213    0.0900
     33 H33         5.0948   -0.5944   42.9935 H       1  ZINC001191386213    0.0900
     34 H34         3.4378   -0.4586   45.1146 H       1  ZINC001191386213    0.4100
     35 H35         6.0988    1.1162   46.9746 H       1  ZINC001191386213    0.1300
     36 H36         5.7750    2.4444   49.0188 H       1  ZINC001191386213    0.1300
     37 H37         3.5166    2.7740   49.9335 H       1  ZINC001191386213    0.1300
     38 H38        -1.8596    1.4630   48.9749 H       1  ZINC001191386213    0.4400
     39 H39        -3.2896    2.3967   49.3014 H       1  ZINC001191386213    0.0700
     40 H40        -3.0541    0.9654   50.3429 H       1  ZINC001191386213    0.0800
     41 H41        -5.5420    2.0943   49.8154 H       1  ZINC001191386213    0.0900
     42 H42        -5.1726    1.1676   51.3068 H       1  ZINC001191386213    0.0900
     43 H43        -7.0423    1.5605   51.5890 H       1  ZINC001191386213    0.1300
     44 H44        -8.8998    1.4346   53.2001 H       1  ZINC001191386213    0.1300
     45 H45        -9.0500    3.0654   55.0379 H       1  ZINC001191386213    0.1300
     46 H46        -7.3423    4.8243   55.2668 H       1  ZINC001191386213    0.1400
     47 H47        -3.6781    2.6990   53.1451 H       1  ZINC001191386213    0.0800
     48 H48        -3.3678    4.3595   52.5522 H       1  ZINC001191386213    0.0900
     49 H49         1.5351    3.0717   50.7665 H       1  ZINC001191386213    0.1700
     50 H50         1.8848    0.4379   46.7358 H       1  ZINC001191386213    0.1500
@<TRIPOS>BOND
     1     1     2    1
     2     1    31    1
     3     1    32    1
     4     1    33    1
     5     2     3    2
     6     2     4   am
     7     4     5    1
     8     4    34    1
     9     5    30   ar
    10     5     6   ar
    11     6     7   ar
    12     6    35    1
    13     7     8   ar
    14     7    36    1
    15     8     9   ar
    16     8    37    1
    17     9    10    1
    18     9    30   ar
    19    10    29    1
    20    10    11    2
    21    11    12    1
    22    12    13    1
    23    12    38    1
    24    13    14    1
    25    13    29    2
    26    14    15    2
    27    14    16   am
    28    16    28    1
    29    16    17    1
    30    17    18    1
    31    17    39    1
    32    17    40    1
    33    18    19    1
    34    18    41    1
    35    18    42    1
    36    19    20    1
    37    19    21    1
    38    19    28    1
    39    21    26   ar
    40    21    22   ar
    41    22    23   ar
    42    22    43    1
    43    23    24   ar
    44    23    44    1
    45    24    25   ar
    46    24    45    1
    47    25    26   ar
    48    25    46    1
    49    26    27    1
    50    28    47    1
    51    28    48    1
    52    29    49    1
    53    30    50    1
@<TRIPOS>SUBSTRUCTURE
     1 ZINC001191386213        1 TEMP              0 ****  ****    0 ROOT


##########                                Name:    ZINC000863216249
##########                DOCK_Rotatable_Bonds:                   5
##########                         Heavy_Atoms:                  23
##########                    Molecular_Weight:             396.351
##########                DOCK_Rotatable_Bonds:                   5
##########                       Formal_Charge:         -0.00999944
##########                     HBond_Acceptors:                   5
##########                        HBond_Donors:                   1
##########                         Heavy_Atoms:                  23
##########                          Grid_Score:          -29.999977
##########                     Grid_vdw_energy:          -27.185884
##########                      Grid_es_energy:           -2.814093
##########           Internal_energy_repulsive:           20.518539

@<TRIPOS>MOLECULE
ZINC000863216249
 45 48 1 0 0
SMALL
USER_CHARGES


@<TRIPOS>ATOM
      1 S1        -14.9332    0.5566   63.2084 S.2     1  ZINC000863216249   -0.5900
      2 C2        -13.6062    0.1091   62.2237 C.2     1  ZINC000863216249    0.5600
      3 N3        -12.3755    0.5879   62.4929 N.am    1  ZINC000863216249   -0.6800
      4 C4        -12.1743    1.4962   63.6246 C.3     1  ZINC000863216249    0.1200
      5 C5        -10.6764    1.6469   63.8976 C.3     1  ZINC000863216249    0.0400
      6 N6        -10.3135    0.8609   65.0843 N.3     1  ZINC000863216249   -0.5300
      7 C7        -10.4345    1.6672   66.3077 C.3     1  ZINC000863216249    0.0000
      8 C8        -10.1056    0.7950   67.5221 C.3     1  ZINC000863216249    0.0600
      9 O9         -8.7959    0.2424   67.3652 O.3     1  ZINC000863216249   -0.3800
     10 C10        -8.6428   -0.5495   66.1841 C.3     1  ZINC000863216249    0.0600
     11 C11        -8.9569    0.3091   64.9562 C.3     1  ZINC000863216249    0.0200
     12 N12       -13.7913   -0.7266   61.1825 N.am    1  ZINC000863216249   -0.5100
     13 C13       -15.0790   -1.3111   60.7914 C.3     1  ZINC000863216249    0.1200
     14 C14       -14.7639   -2.1747   59.5661 C.3     1  ZINC000863216249   -0.1100
     15 C15       -15.4759   -3.4990   59.3187 C.3     1  ZINC000863216249   -0.1500
     16 C16       -15.7425   -2.2996   58.4047 C.3     1  ZINC000863216249   -0.1500
     17 C17       -13.2824   -2.0169   59.3411 C.ar    1  ZINC000863216249   -0.0700
     18 C18       -12.4405   -2.5566   58.3880 C.ar    1  ZINC000863216249   -0.0800
     19 C19       -11.0924   -2.2507   58.3968 C.ar    1  ZINC000863216249   -0.1000
     20 C20       -10.5860   -1.4009   59.3638 C.ar    1  ZINC000863216249   -0.0700
     21 Br21       -8.7424   -0.9803   59.3776 Br      1  ZINC000863216249   -0.0400
     22 C22       -11.4223   -0.8592   60.3180 C.ar    1  ZINC000863216249   -0.0900
     23 C23       -12.7851   -1.1591   60.3125 C.ar    1  ZINC000863216249    0.1400
     24 H24       -11.6230    0.3312   61.9373 H       1  ZINC000863216249    0.4000
     25 H25       -12.6005    2.4711   63.3883 H       1  ZINC000863216249    0.0900
     26 H26       -12.6656    1.0896   64.5086 H       1  ZINC000863216249    0.1000
     27 H27       -10.1124    1.2871   63.0370 H       1  ZINC000863216249    0.0900
     28 H28       -10.4428    2.6971   64.0719 H       1  ZINC000863216249    0.0400
     29 H29        -9.7383    2.5047   66.2618 H       1  ZINC000863216249    0.0500
     30 H30       -11.4533    2.0444   66.3956 H       1  ZINC000863216249    0.1000
     31 H31       -10.1384    1.4028   68.4263 H       1  ZINC000863216249    0.1000
     32 H32       -10.8343   -0.0120   67.5987 H       1  ZINC000863216249    0.0600
     33 H33        -7.6176   -0.9141   66.1208 H       1  ZINC000863216249    0.1000
     34 H34        -9.3290   -1.3955   66.2218 H       1  ZINC000863216249    0.0600
     35 H35        -8.8970   -0.3050   64.0577 H       1  ZINC000863216249    0.0900
     36 H36        -8.2371    1.1249   64.8887 H       1  ZINC000863216249    0.0500
     37 H37       -15.4761   -1.9276   61.5978 H       1  ZINC000863216249    0.0900
     38 H38       -15.7879   -0.5256   60.5294 H       1  ZINC000863216249    0.0900
     39 H39       -14.8853   -4.3201   58.9125 H       1  ZINC000863216249    0.1100
     40 H40       -16.2632   -3.7854   60.0160 H       1  ZINC000863216249    0.1100
     41 H41       -16.7050   -1.7972   58.5011 H       1  ZINC000863216249    0.1100
     42 H42       -15.3271   -2.3319   57.3975 H       1  ZINC000863216249    0.1100
     43 H43       -12.8368   -3.2202   57.6337 H       1  ZINC000863216249    0.1400
     44 H44       -10.4363   -2.6742   57.6508 H       1  ZINC000863216249    0.1400
     45 H45       -11.0209   -0.1966   61.0706 H       1  ZINC000863216249    0.1900
@<TRIPOS>BOND
     1     1     2    2
     2     2     3   am
     3     2    12   am
     4     3     4    1
     5     3    24    1
     6     4     5    1
     7     4    25    1
     8     4    26    1
     9     5     6    1
    10     5    27    1
    11     5    28    1
    12     6    11    1
    13     6     7    1
    14     7     8    1
    15     7    29    1
    16     7    30    1
    17     8     9    1
    18     8    31    1
    19     8    32    1
    20     9    10    1
    21    10    11    1
    22    10    33    1
    23    10    34    1
    24    11    35    1
    25    11    36    1
    26    12    23    1
    27    12    13    1
    28    13    14    1
    29    13    37    1
    30    13    38    1
    31    14    16    1
    32    14    15    1
    33    14    17    1
    34    15    16    1
    35    15    39    1
    36    15    40    1
    37    16    41    1
    38    16    42    1
    39    17    23   ar
    40    17    18   ar
    41    18    19   ar
    42    18    43    1
    43    19    20   ar
    44    19    44    1
    45    20    21    1
    46    20    22   ar
    47    22    23   ar
    48    22    45    1
@<TRIPOS>SUBSTRUCTURE
     1 ZINC000863216249        1 TEMP              0 ****  ****    0 ROOT


##########                                Name:    ZINC001018437438
##########                DOCK_Rotatable_Bonds:                   8
##########                         Heavy_Atoms:                  24
##########                    Molecular_Weight:              333.39
##########                DOCK_Rotatable_Bonds:                   8
##########                       Formal_Charge:        -4.17233e-07
##########                     HBond_Acceptors:                   8
##########                        HBond_Donors:                   4
##########                         Heavy_Atoms:                  24
##########                          Grid_Score:          -29.990499
##########                     Grid_vdw_energy:          -29.239140
##########                      Grid_es_energy:           -0.751360
##########           Internal_energy_repulsive:           90.372162

@<TRIPOS>MOLECULE
ZINC001018437438
 47 49 1 0 0
SMALL
USER_CHARGES


@<TRIPOS>ATOM
      1 C1         -8.7860    4.3586   53.0893 C.3     1  ZINC001018437438   -0.1400
      2 C2         -7.6545    4.0626   52.1030 C.3     1  ZINC001018437438    0.1400
      3 H3         -7.9317    4.4196   51.1111 H       1  ZINC001018437438    0.0700
      4 C4         -6.3745    4.7671   52.5632 C.3     1  ZINC001018437438   -0.1300
      5 C5         -5.2151    4.3562   51.6527 C.3     1  ZINC001018437438   -0.1300
      6 C6         -4.9970    2.8447   51.7524 C.3     1  ZINC001018437438    0.1300
      7 H7         -4.7856    2.5751   52.7871 H       1  ZINC001018437438    0.1000
      8 N8         -3.8665    2.4568   50.9053 N.am    1  ZINC001018437438   -0.7200
      9 C9         -2.6049    2.6046   51.3559 C.2     1  ZINC001018437438    0.6000
     10 O10        -2.4050    3.0586   52.4664 O.2     1  ZINC001018437438   -0.5100
     11 C11        -1.4692    2.2167   50.5042 C.2     1  ZINC001018437438   -0.0400
     12 C12        -0.1268    2.2633   50.8378 C.2     1  ZINC001018437438   -0.1400
     13 C13         0.5514    1.7979   49.7088 C.2     1  ZINC001018437438    0.0600
     14 C14         2.0448    1.6557   49.5668 C.3     1  ZINC001018437438   -0.0800
     15 C15         2.8661    1.5132   50.8499 C.3     1  ZINC001018437438   -0.1700
     16 C16         2.6639    0.3052   49.9329 C.3     1  ZINC001018437438   -0.1600
     17 N17        -0.3405    1.5066   48.7966 N.2     1  ZINC001018437438   -0.2600
     18 N18        -1.5290    1.7328   49.2282 N.pl3   1  ZINC001018437438   -0.3800
     19 C19        -6.2614    2.1183   51.2830 C.3     1  ZINC001018437438    0.1000
     20 N20        -7.4095    2.6148   52.0545 N.am    1  ZINC001018437438   -0.6100
     21 C21        -8.2188    1.7586   52.7090 C.2     1  ZINC001018437438    0.5200
     22 O22        -9.1603    2.1811   53.3462 O.2     1  ZINC001018437438   -0.4800
     23 C23        -7.9538    0.2763   52.6493 C.3     1  ZINC001018437438   -0.1700
     24 C24        -9.2024   -0.4733   53.0372 C.2     1  ZINC001018437438    0.5200
     25 N25        -9.4870   -0.6806   54.3382 N.am    1  ZINC001018437438   -0.8600
     26 O26        -9.9510   -0.8898   52.1787 O.2     1  ZINC001018437438   -0.5000
     27 H27        -8.5512    3.9130   54.0560 H       1  ZINC001018437438    0.0700
     28 H28        -8.8957    5.4370   53.2034 H       1  ZINC001018437438    0.0500
     29 H29        -9.7173    3.9367   52.7113 H       1  ZINC001018437438    0.0800
     30 H30        -6.5142    5.8468   52.5096 H       1  ZINC001018437438    0.0900
     31 H31        -6.1501    4.4795   53.5903 H       1  ZINC001018437438    0.0700
     32 H32        -5.4509    4.6219   50.6222 H       1  ZINC001018437438    0.0700
     33 H33        -4.3082    4.8752   51.9629 H       1  ZINC001018437438    0.0800
     34 H34        -4.0258    2.0937   50.0201 H       1  ZINC001018437438    0.4000
     35 H35         0.3048    2.5902   51.7723 H       1  ZINC001018437438    0.1700
     36 H36         2.4932    2.2074   48.7405 H       1  ZINC001018437438    0.1200
     37 H37         3.8550    1.9713   50.8679 H       1  ZINC001018437438    0.1000
     38 H38         2.3261    1.5224   51.7966 H       1  ZINC001018437438    0.1000
     39 H39         1.9908   -0.4804   50.2765 H       1  ZINC001018437438    0.1000
     40 H40         3.5196   -0.0313   49.3477 H       1  ZINC001018437438    0.1000
     41 H41        -2.3442    1.5887   48.7226 H       1  ZINC001018437438    0.4400
     42 H42        -6.4235    2.3150   50.2232 H       1  ZINC001018437438    0.0700
     43 H43        -6.1484    1.0463   51.4447 H       1  ZINC001018437438    0.0900
     44 H44        -7.6642   -0.0004   51.6355 H       1  ZINC001018437438    0.1200
     45 H45        -7.1488    0.0229   53.3390 H       1  ZINC001018437438    0.1200
     46 H46       -10.2900   -1.1639   54.5880 H       1  ZINC001018437438    0.4000
     47 H47        -8.8888   -0.3462   55.0246 H       1  ZINC001018437438    0.4000
@<TRIPOS>BOND
     1     1     2    1
     2     1    27    1
     3     1    28    1
     4     1    29    1
     5     2     3    1
     6     2    20    1
     7     2     4    1
     8     4     5    1
     9     4    30    1
    10     4    31    1
    11     5     6    1
    12     5    32    1
    13     5    33    1
    14     6     7    1
    15     6     8    1
    16     6    19    1
    17     8     9   am
    18     8    34    1
    19     9    10    2
    20     9    11    1
    21    11    18    1
    22    11    12    2
    23    12    13    1
    24    12    35    1
    25    13    14    1
    26    13    17    2
    27    14    16    1
    28    14    15    1
    29    14    36    1
    30    15    16    1
    31    15    37    1
    32    15    38    1
    33    16    39    1
    34    16    40    1
    35    17    18    1
    36    18    41    1
    37    19    20    1
    38    19    42    1
    39    19    43    1
    40    20    21   am
    41    21    22    2
    42    21    23    1
    43    23    24    1
    44    23    44    1
    45    23    45    1
    46    24    25   am
    47    24    26    2
    48    25    46    1
    49    25    47    1
@<TRIPOS>SUBSTRUCTURE
     1 ZINC001018437438        1 TEMP              0 ****  ****    0 ROOT


##########                                Name:    ZINC000077537368
##########                DOCK_Rotatable_Bonds:                   5
##########                         Heavy_Atoms:                  27
##########                    Molecular_Weight:             365.478
##########                DOCK_Rotatable_Bonds:                   5
##########                       Formal_Charge:          -0.0400007
##########                     HBond_Acceptors:                   6
##########                        HBond_Donors:                   0
##########                         Heavy_Atoms:                  27
##########                          Grid_Score:          -29.978622
##########                     Grid_vdw_energy:          -30.943222
##########                      Grid_es_energy:            0.964600
##########           Internal_energy_repulsive:           10.869807

@<TRIPOS>MOLECULE
ZINC000077537368
 54 56 1 0 0
SMALL
USER_CHARGES


@<TRIPOS>ATOM
      1 C1         -7.5955   -0.5390   59.8241 C.3     1  ZINC000077537368    0.0800
      2 N2         -8.8041   -0.4652   58.9995 N.pl3   1  ZINC000077537368   -0.2600
      3 N3         -9.6135   -1.4389   58.7837 N.2     1  ZINC000077537368   -0.2700
      4 C4        -10.5988   -1.0645   58.0081 C.2     1  ZINC000077537368    0.0400
      5 C5        -11.7382   -1.9324   57.5396 C.3     1  ZINC000077537368    0.0200
      6 C6        -11.1798   -3.1770   56.8467 C.3     1  ZINC000077537368   -0.1400
      7 C7        -12.5854   -2.3547   58.7416 C.3     1  ZINC000077537368   -0.1400
      8 C8        -12.6063   -1.1466   56.5547 C.3     1  ZINC000077537368   -0.1400
      9 C9        -10.4073    0.2825   57.6922 C.2     1  ZINC000077537368   -0.2000
     10 C10        -9.2454    0.6512   58.3477 C.2     1  ZINC000077537368   -0.0400
     11 C11        -8.6082    1.9777   58.3371 C.2     1  ZINC000077537368    0.5900
     12 O12        -8.8113    2.7572   59.2484 O.2     1  ZINC000077537368   -0.5400
     13 N13        -7.7995    2.3287   57.3176 N.am    1  ZINC000077537368   -0.6000
     14 C14        -7.5452    1.4036   56.2028 C.3     1  ZINC000077537368    0.0800
     15 C15        -7.8065    2.1439   54.8868 C.3     1  ZINC000077537368    0.0400
     16 N16        -7.0157    3.3816   54.8595 N.3     1  ZINC000077537368   -0.5300
     17 C17        -7.1041    4.0339   53.5463 C.3     1  ZINC000077537368    0.0900
     18 C18        -5.9756    3.5541   52.6702 C.ar    1  ZINC000077537368   -0.0500
     19 C19        -4.6671    3.8502   53.0089 C.ar    1  ZINC000077537368   -0.1200
     20 C20        -3.6294    3.4144   52.2112 C.ar    1  ZINC000077537368   -0.0700
     21 C21        -3.9020    2.6726   51.0600 C.ar    1  ZINC000077537368   -0.0300
     22 C22        -2.8297    2.2166   50.2277 C.1     1  ZINC000077537368    0.2500
     23 N23        -1.9791    1.8549   49.5672 N.1     1  ZINC000077537368   -0.4100
     24 C24        -5.2248    2.3770   50.7246 C.ar    1  ZINC000077537368   -0.0700
     25 C25        -6.2526    2.8145   51.5340 C.ar    1  ZINC000077537368   -0.1000
     26 C26        -7.4247    4.2989   55.9316 C.3     1  ZINC000077537368    0.0400
     27 C27        -7.1527    3.6493   57.2874 C.3     1  ZINC000077537368    0.1200
     28 H28        -7.8220   -0.1933   60.8327 H       1  ZINC000077537368    0.0800
     29 H29        -7.2451   -1.5703   59.8637 H       1  ZINC000077537368    0.1000
     30 H30        -6.8200    0.0917   59.3895 H       1  ZINC000077537368    0.1100
     31 H31       -10.5613   -3.7367   57.5484 H       1  ZINC000077537368    0.0600
     32 H32       -12.0040   -3.8047   56.5079 H       1  ZINC000077537368    0.0600
     33 H33       -10.5763   -2.8761   55.9904 H       1  ZINC000077537368    0.0600
     34 H34       -12.9832   -1.4679   59.2352 H       1  ZINC000077537368    0.0600
     35 H35       -13.4096   -2.9824   58.4028 H       1  ZINC000077537368    0.0600
     36 H36       -11.9669   -2.9144   59.4433 H       1  ZINC000077537368    0.0600
     37 H37       -12.0028   -0.8458   55.6983 H       1  ZINC000077537368    0.0600
     38 H38       -13.4304   -1.7744   56.2158 H       1  ZINC000077537368    0.0600
     39 H39       -13.0041   -0.2599   57.0483 H       1  ZINC000077537368    0.0600
     40 H40       -11.0346    0.9051   57.0714 H       1  ZINC000077537368    0.1700
     41 H41        -6.5087    1.0680   56.2346 H       1  ZINC000077537368    0.0800
     42 H42        -8.2134    0.5457   56.2792 H       1  ZINC000077537368    0.1200
     43 H43        -7.5177    1.5093   54.0490 H       1  ZINC000077537368    0.0900
     44 H44        -8.8662    2.3875   54.8107 H       1  ZINC000077537368    0.0400
     45 H45        -8.0572    3.7845   53.0801 H       1  ZINC000077537368    0.0900
     46 H46        -7.0325    5.1143   53.6717 H       1  ZINC000077537368    0.0500
     47 H47        -4.4578    4.4241   53.8995 H       1  ZINC000077537368    0.1300
     48 H48        -2.6086    3.6469   52.4762 H       1  ZINC000077537368    0.1300
     49 H49        -5.4425    1.8036   49.8357 H       1  ZINC000077537368    0.1300
     50 H50        -7.2761    2.5863   51.2760 H       1  ZINC000077537368    0.1400
     51 H51        -6.8590    5.2271   55.8515 H       1  ZINC000077537368    0.1000
     52 H52        -8.4897    4.5125   55.8409 H       1  ZINC000077537368    0.0400
     53 H53        -7.5585    4.2758   58.0816 H       1  ZINC000077537368    0.1000
     54 H54        -6.0784    3.5274   57.4261 H       1  ZINC000077537368    0.0800
@<TRIPOS>BOND
     1     1     2    1
     2     1    28    1
     3     1    29    1
     4     1    30    1
     5     2    10    1
     6     2     3    1
     7     3     4    2
     8     4     5    1
     9     4     9    1
    10     5     6    1
    11     5     7    1
    12     5     8    1
    13     6    31    1
    14     6    32    1
    15     6    33    1
    16     7    34    1
    17     7    35    1
    18     7    36    1
    19     8    37    1
    20     8    38    1
    21     8    39    1
    22     9    10    2
    23     9    40    1
    24    10    11    1
    25    11    12    2
    26    11    13   am
    27    13    27    1
    28    13    14    1
    29    14    15    1
    30    14    41    1
    31    14    42    1
    32    15    16    1
    33    15    43    1
    34    15    44    1
    35    16    17    1
    36    16    26    1
    37    17    18    1
    38    17    45    1
    39    17    46    1
    40    18    25   ar
    41    18    19   ar
    42    19    20   ar
    43    19    47    1
    44    20    21   ar
    45    20    48    1
    46    21    22    1
    47    21    24   ar
    48    22    23    3
    49    24    25   ar
    50    24    49    1
    51    25    50    1
    52    26    27    1
    53    26    51    1
    54    26    52    1
    55    27    53    1
    56    27    54    1
@<TRIPOS>SUBSTRUCTURE
     1 ZINC000077537368        1 TEMP              0 ****  ****    0 ROOT


##########                                Name:    ZINC000652498551
##########                DOCK_Rotatable_Bonds:                   6
##########                         Heavy_Atoms:                  23
##########                    Molecular_Weight:             388.277
##########                DOCK_Rotatable_Bonds:                   6
##########                       Formal_Charge:          -0.0400001
##########                     HBond_Acceptors:                   5
##########                        HBond_Donors:                   1
##########                         Heavy_Atoms:                  23
##########                          Grid_Score:          -29.978127
##########                     Grid_vdw_energy:          -27.666883
##########                      Grid_es_energy:           -2.311242
##########           Internal_energy_repulsive:           22.786152

@<TRIPOS>MOLECULE
ZINC000652498551
 46 47 1 0 0
SMALL
USER_CHARGES


@<TRIPOS>ATOM
      1 C1         -9.1621    0.0335   53.0895 C.3     1  ZINC000652498551   -0.1300
      2 C2         -9.0672    1.4834   53.5691 C.3     1  ZINC000652498551   -0.1300
      3 C3         -9.7889    2.3971   52.5765 C.3     1  ZINC000652498551   -0.1300
      4 C4         -9.7115    1.6069   54.9257 C.2     1  ZINC000652498551    0.5000
      5 O5         -9.0797    1.3227   55.9289 O.co2   1  ZINC000652498551   -0.7000
      6 O6        -10.8648    1.9911   55.0202 O.co2   1  ZINC000652498551   -0.6700
      7 C7         -7.5964    1.8940   53.6637 C.3     1  ZINC000652498551   -0.0600
      8 H8         -7.0672    1.2031   54.3200 H       1  ZINC000652498551    0.0700
      9 C9         -7.4972    3.3138   54.2290 C.3     1  ZINC000652498551   -0.1500
     10 C10        -6.0275    3.7441   54.2464 C.3     1  ZINC000652498551   -0.1400
     11 C11        -5.4552    3.6422   52.8310 C.3     1  ZINC000652498551   -0.0100
     12 N12        -5.5551    2.2565   52.3575 N.4     1  ZINC000652498551   -0.3800
     13 H13        -5.0750    1.6464   53.0021 H       1  ZINC000652498551    0.4200
     14 C14        -4.9359    2.1483   51.0298 C.3     1  ZINC000652498551    0.0000
     15 C15        -3.4653    2.5614   51.1177 C.3     1  ZINC000652498551    0.0200
     16 O16        -2.7861    2.1613   49.9258 O.3     1  ZINC000652498551   -0.3100
     17 C17        -1.4289    2.2294   49.9367 C.ar    1  ZINC000652498551    0.1600
     18 C18        -0.7767    2.9225   50.9453 C.ar    1  ZINC000652498551   -0.2300
     19 C19         0.6056    2.9907   50.9545 C.ar    1  ZINC000652498551    0.1500
     20 F20         1.2419    3.6656   51.9366 F       1  ZINC000652498551   -0.1200
     21 C21         1.3363    2.3671   49.9574 C.ar    1  ZINC000652498551   -0.1600
     22 C22         0.6863    1.6760   48.9505 C.ar    1  ZINC000652498551   -0.0300
     23 Br23        1.6873    0.8253   47.5903 Br      1  ZINC000652498551   -0.0100
     24 C24        -0.6939    1.6010   48.9416 C.ar    1  ZINC000652498551   -0.1300
     25 C25        -6.9656    1.8595   52.2701 C.3     1  ZINC000652498551   -0.0200
     26 H26        -8.6961   -0.0559   52.1082 H       1  ZINC000652498551    0.0400
     27 H27        -8.6480   -0.6174   53.7966 H       1  ZINC000652498551    0.0500
     28 H28       -10.2100   -0.2590   53.0221 H       1  ZINC000652498551    0.0600
     29 H29       -10.8367    2.1046   52.5091 H       1  ZINC000652498551    0.0700
     30 H30        -9.7214    3.4300   52.9182 H       1  ZINC000652498551    0.0400
     31 H31        -9.3229    2.3077   51.5952 H       1  ZINC000652498551    0.0500
     32 H32        -8.0696    3.9968   53.6015 H       1  ZINC000652498551    0.1300
     33 H33        -7.8939    3.3304   55.2442 H       1  ZINC000652498551    0.0800
     34 H34        -5.9541    4.7741   54.5955 H       1  ZINC000652498551    0.1000
     35 H35        -5.4651    3.0918   54.9145 H       1  ZINC000652498551    0.0700
     36 H36        -6.0181    4.2951   52.1640 H       1  ZINC000652498551    0.1300
     37 H37        -4.4090    3.9482   52.8398 H       1  ZINC000652498551    0.1100
     38 H38        -5.0036    1.1182   50.6801 H       1  ZINC000652498551    0.1400
     39 H39        -5.4563    2.8040   50.3317 H       1  ZINC000652498551    0.1500
     40 H40        -3.3979    3.6436   51.2285 H       1  ZINC000652498551    0.1100
     41 H41        -3.0032    2.0785   51.9787 H       1  ZINC000652498551    0.0900
     42 H42        -1.3469    3.4088   51.7229 H       1  ZINC000652498551    0.1500
     43 H43         2.4149    2.4205   49.9655 H       1  ZINC000652498551    0.1500
     44 H44        -1.2004    1.0610   48.1554 H       1  ZINC000652498551    0.1500
     45 H45        -7.0339    0.8501   51.8646 H       1  ZINC000652498551    0.1100
     46 H46        -7.4969    2.5500   51.6152 H       1  ZINC000652498551    0.1700
@<TRIPOS>BOND
     1     1     2    1
     2     1    26    1
     3     1    27    1
     4     1    28    1
     5     2     3    1
     6     2     4    1
     7     2     7    1
     8     3    29    1
     9     3    30    1
    10     3    31    1
    11     4     5   ar
    12     4     6   ar
    13     7     8    1
    14     7    25    1
    15     7     9    1
    16     9    10    1
    17     9    32    1
    18     9    33    1
    19    10    11    1
    20    10    34    1
    21    10    35    1
    22    11    12    1
    23    11    36    1
    24    11    37    1
    25    12    13    1
    26    12    14    1
    27    12    25    1
    28    14    15    1
    29    14    38    1
    30    14    39    1
    31    15    16    1
    32    15    40    1
    33    15    41    1
    34    16    17    1
    35    17    24   ar
    36    17    18   ar
    37    18    19   ar
    38    18    42    1
    39    19    20    1
    40    19    21   ar
    41    21    22   ar
    42    21    43    1
    43    22    23    1
    44    22    24   ar
    45    24    44    1
    46    25    45    1
    47    25    46    1
@<TRIPOS>SUBSTRUCTURE
     1 ZINC000652498551        1 TEMP              0 ****  ****    0 ROOT


##########                                Name:    ZINC000937331732
##########                DOCK_Rotatable_Bonds:                   6
##########                         Heavy_Atoms:                  24
##########                    Molecular_Weight:              333.35
##########                DOCK_Rotatable_Bonds:                   6
##########                       Formal_Charge:          -0.0299999
##########                     HBond_Acceptors:                  10
##########                        HBond_Donors:                   1
##########                         Heavy_Atoms:                  24
##########                          Grid_Score:          -29.974918
##########                     Grid_vdw_energy:          -29.263382
##########                      Grid_es_energy:           -0.711537
##########           Internal_energy_repulsive:           26.749338

@<TRIPOS>MOLECULE
ZINC000937331732
 43 45 1 0 0
SMALL
USER_CHARGES


@<TRIPOS>ATOM
      1 C1         -6.6093    4.5535   51.7815 C.3     1  ZINC000937331732    0.0600
      2 N2         -6.7014    3.1614   52.2285 N.am    1  ZINC000937331732   -0.6100
      3 C3         -7.8382    2.7091   52.7937 C.2     1  ZINC000937331732    0.5000
      4 O4         -8.7843    3.4548   52.9336 O.2     1  ZINC000937331732   -0.5200
      5 C5         -7.9338    1.2766   53.2520 C.3     1  ZINC000937331732    0.1500
      6 N6         -9.2052    1.0710   53.9500 N.am    1  ZINC000937331732   -0.4400
      7 N7         -9.6117    1.6955   55.1372 N.2     1  ZINC000937331732   -0.2800
      8 C8        -10.7912    1.2575   55.4394 C.2     1  ZINC000937331732    0.2600
      9 N9        -11.1869    0.3538   54.4837 N.am    1  ZINC000937331732   -0.5600
     10 C10       -12.4613   -0.3686   54.4617 C.3     1  ZINC000937331732    0.1000
     11 C11       -10.2048    0.2496   53.5661 C.2     1  ZINC000937331732    0.6500
     12 O12       -10.2143   -0.4612   52.5769 O.2     1  ZINC000937331732   -0.5500
     13 C13        -5.5578    2.2611   52.0612 C.3     1  ZINC000937331732    0.1300
     14 H14        -5.6973    1.3505   52.6438 H       1  ZINC000937331732    0.1200
     15 C15        -5.3380    1.9257   50.5623 C.3     1  ZINC000937331732   -0.1500
     16 C16        -3.8233    1.6020   50.5351 C.3     1  ZINC000937331732    0.1000
     17 N17        -3.2175    2.5506   51.4873 N.am    1  ZINC000937331732   -0.6000
     18 C18        -1.9355    2.9660   51.4740 C.2     1  ZINC000937331732    0.6200
     19 O19        -1.5428    3.7537   52.3130 O.2     1  ZINC000937331732   -0.5400
     20 C20        -1.0092    2.4656   50.4420 C.2     1  ZINC000937331732    0.1400
     21 N21         0.2582    2.7977   50.3172 N.2     1  ZINC000937331732   -0.4400
     22 C22         0.7772    2.1507   49.2762 C.2     1  ZINC000937331732   -0.0300
     23 C23        -0.1938    1.3833   48.7232 C.2     1  ZINC000937331732   -0.0200
     24 N24        -1.3177    1.5728   49.4544 N.pl3   1  ZINC000937331732   -0.5200
     25 C25        -4.2443    2.9674   52.4580 C.3     1  ZINC000937331732    0.1000
     26 H26        -6.2351    5.1729   52.5966 H       1  ZINC000937331732    0.0700
     27 H27        -5.9275    4.6185   50.9334 H       1  ZINC000937331732    0.0800
     28 H28        -7.5966    4.9050   51.4817 H       1  ZINC000937331732    0.0800
     29 H29        -7.8825    0.6144   52.3877 H       1  ZINC000937331732    0.1300
     30 H30        -7.1081    1.0557   53.9284 H       1  ZINC000937331732    0.1300
     31 H31       -11.3698    1.5537   56.3020 H       1  ZINC000937331732    0.2300
     32 H32       -13.0576   -0.0798   55.3272 H       1  ZINC000937331732    0.1000
     33 H33       -13.0031   -0.1218   53.5485 H       1  ZINC000937331732    0.0800
     34 H34       -12.2715   -1.4414   54.4929 H       1  ZINC000937331732    0.0800
     35 H35        -5.9282    1.0587   50.2654 H       1  ZINC000937331732    0.0900
     36 H36        -5.5652    2.7855   49.9322 H       1  ZINC000937331732    0.0800
     37 H37        -3.6488    0.5759   50.8588 H       1  ZINC000937331732    0.0800
     38 H38        -3.4199    1.7590   49.5348 H       1  ZINC000937331732    0.1100
     39 H39         1.7979    2.2246   48.9309 H       1  ZINC000937331732    0.1800
     40 H40        -0.0897    0.7387   47.8630 H       1  ZINC000937331732    0.1900
     41 H41        -2.1809    1.1574   49.3022 H       1  ZINC000937331732    0.4300
     42 H42        -4.3792    4.0481   52.4138 H       1  ZINC000937331732    0.0800
     43 H43        -3.9465    2.6697   53.4633 H       1  ZINC000937331732    0.0800
@<TRIPOS>BOND
     1     1     2    1
     2     1    26    1
     3     1    27    1
     4     1    28    1
     5     2     3   am
     6     2    13    1
     7     3     4    2
     8     3     5    1
     9     5     6    1
    10     5    29    1
    11     5    30    1
    12     6    11   am
    13     6     7    1
    14     7     8    2
    15     8     9    1
    16     8    31    1
    17     9    10    1
    18     9    11   am
    19    10    32    1
    20    10    33    1
    21    10    34    1
    22    11    12    2
    23    13    14    1
    24    13    25    1
    25    13    15    1
    26    15    16    1
    27    15    35    1
    28    15    36    1
    29    16    17    1
    30    16    37    1
    31    16    38    1
    32    17    18   am
    33    17    25    1
    34    18    19    2
    35    18    20    1
    36    20    24    1
    37    20    21    2
    38    21    22    1
    39    22    23    2
    40    22    39    1
    41    23    24    1
    42    23    40    1
    43    24    41    1
    44    25    42    1
    45    25    43    1
@<TRIPOS>SUBSTRUCTURE
     1 ZINC000937331732        1 TEMP              0 ****  ****    0 ROOT


##########                                Name:    ZINC000774689801
##########                DOCK_Rotatable_Bonds:                   4
##########                         Heavy_Atoms:                  24
##########                    Molecular_Weight:             347.395
##########                DOCK_Rotatable_Bonds:                   4
##########                       Formal_Charge:         -0.00999961
##########                     HBond_Acceptors:                   8
##########                        HBond_Donors:                   1
##########                         Heavy_Atoms:                  24
##########                          Grid_Score:          -29.974079
##########                     Grid_vdw_energy:          -30.632118
##########                      Grid_es_energy:            0.658039
##########           Internal_energy_repulsive:            3.236780

@<TRIPOS>MOLECULE
ZINC000774689801
 41 44 1 0 0
SMALL
USER_CHARGES


@<TRIPOS>ATOM
      1 C1         -4.0946    4.1243   53.2990 C.3     1  ZINC000774689801   -0.1200
      2 C2         -3.9247    3.2560   52.0790 C.2     1  ZINC000774689801    0.0600
      3 C3         -4.9653    2.6661   51.4689 C.2     1  ZINC000774689801   -0.2800
      4 C4         -6.3608    2.7858   51.8962 C.2     1  ZINC000774689801    0.5500
      5 O5         -7.0380    3.7182   51.5072 O.2     1  ZINC000774689801   -0.4900
      6 O6         -6.8953    1.8618   52.7210 O.3     1  ZINC000774689801   -0.3400
      7 C7         -8.2759    2.0591   53.1253 C.3     1  ZINC000774689801    0.0900
      8 C8         -8.7096    0.9092   54.0367 C.3     1  ZINC000774689801   -0.1300
      9 H9         -7.9490    0.7153   54.7930 H       1  ZINC000774689801    0.1200
     10 C10       -10.0669    1.2302   54.7043 C.3     1  ZINC000774689801   -0.1300
     11 C11       -10.7432   -0.1585   54.7266 C.3     1  ZINC000774689801    0.1000
     12 N12       -10.1281   -0.9114   53.6271 N.am    1  ZINC000774689801   -0.7400
     13 C13        -8.9783   -0.3382   53.2239 C.2     1  ZINC000774689801    0.5200
     14 O14        -8.2660   -0.7589   52.3371 O.2     1  ZINC000774689801   -0.5100
     15 S15        -4.4186    1.7317   50.0871 S.3     1  ZINC000774689801    0.3000
     16 C16        -2.7434    2.1806   50.3848 C.2     1  ZINC000774689801    0.1000
     17 C17        -2.6779    3.0160   51.5048 C.2     1  ZINC000774689801   -0.2500
     18 C18        -1.3401    3.4936   51.9034 C.2     1  ZINC000774689801    0.5700
     19 O19        -1.2024    4.2234   52.8688 O.2     1  ZINC000774689801   -0.5000
     20 N20        -0.2687    3.1033   51.1737 N.am    1  ZINC000774689801   -0.5500
     21 C21         1.1514    3.4455   51.3643 C.3     1  ZINC000774689801    0.0900
     22 C22         1.9427    2.3990   50.5530 C.3     1  ZINC000774689801   -0.1300
     23 C23         0.9188    1.9999   49.4686 C.3     1  ZINC000774689801   -0.0800
     24 C24        -0.4324    2.2869   50.1020 C.2     1  ZINC000774689801    0.4200
     25 N25        -1.6115    1.8607   49.7343 N.2     1  ZINC000774689801   -0.5100
     26 H26        -4.2546    5.1574   52.9903 H       1  ZINC000774689801    0.0800
     27 H27        -4.9544    3.7795   53.8735 H       1  ZINC000774689801    0.1000
     28 H28        -3.1977    4.0642   53.9155 H       1  ZINC000774689801    0.0800
     29 H29        -8.3657    3.0028   53.6632 H       1  ZINC000774689801    0.0900
     30 H30        -8.9135    2.0825   52.2415 H       1  ZINC000774689801    0.0800
     31 H31        -9.9240    1.6107   55.7156 H       1  ZINC000774689801    0.1000
     32 H32       -10.6412    1.9340   54.1018 H       1  ZINC000774689801    0.0900
     33 H33       -10.5521   -0.6559   55.6776 H       1  ZINC000774689801    0.0800
     34 H34       -11.8159   -0.0584   54.5614 H       1  ZINC000774689801    0.0800
     35 H35       -10.5011   -1.7194   53.2412 H       1  ZINC000774689801    0.4100
     36 H36         1.3518    4.4472   50.9842 H       1  ZINC000774689801    0.1000
     37 H37         1.4157    3.3824   52.4199 H       1  ZINC000774689801    0.1000
     38 H38         2.8316    2.8436   50.1052 H       1  ZINC000774689801    0.1100
     39 H39         2.2071    1.5429   51.1738 H       1  ZINC000774689801    0.0900
     40 H40         1.0562    2.6061   48.5732 H       1  ZINC000774689801    0.1200
     41 H41         1.0102    0.9402   49.2300 H       1  ZINC000774689801    0.1200
@<TRIPOS>BOND
     1     1     2    1
     2     1    26    1
     3     1    27    1
     4     1    28    1
     5     2    17    1
     6     2     3    2
     7     3     4    1
     8     3    15    1
     9     4     5    2
    10     4     6    1
    11     6     7    1
    12     7     8    1
    13     7    29    1
    14     7    30    1
    15     8     9    1
    16     8    13    1
    17     8    10    1
    18    10    11    1
    19    10    31    1
    20    10    32    1
    21    11    12    1
    22    11    33    1
    23    11    34    1
    24    12    13   am
    25    12    35    1
    26    13    14    2
    27    15    16    1
    28    16    25    1
    29    16    17    2
    30    17    18    1
    31    18    19    2
    32    18    20   am
    33    20    24    1
    34    20    21    1
    35    21    22    1
    36    21    36    1
    37    21    37    1
    38    22    23    1
    39    22    38    1
    40    22    39    1
    41    23    24    1
    42    23    40    1
    43    23    41    1
    44    24    25    2
@<TRIPOS>SUBSTRUCTURE
     1 ZINC000774689801        1 TEMP              0 ****  ****    0 ROOT


##########                                Name:    ZINC000892389374
##########                DOCK_Rotatable_Bonds:                   6
##########                         Heavy_Atoms:                  25
##########                    Molecular_Weight:             371.383
##########                DOCK_Rotatable_Bonds:                   6
##########                       Formal_Charge:          -0.0199998
##########                     HBond_Acceptors:                   9
##########                        HBond_Donors:                   1
##########                         Heavy_Atoms:                  25
##########                          Grid_Score:          -29.941372
##########                     Grid_vdw_energy:          -28.867090
##########                      Grid_es_energy:           -1.074281
##########           Internal_energy_repulsive:            6.824011

@<TRIPOS>MOLECULE
ZINC000892389374
 41 43 1 0 0
SMALL
USER_CHARGES


@<TRIPOS>ATOM
      1 C1         -5.1911    1.8750   50.3485 C.3     1  ZINC000892389374   -0.1000
      2 C2         -4.7611    2.4817   51.6594 C.ar    1  ZINC000892389374   -0.1800
      3 C3         -5.7111    2.9110   52.5655 C.ar    1  ZINC000892389374   -0.0400
      4 C4         -5.3209    3.4674   53.7687 C.ar    1  ZINC000892389374   -0.2100
      5 C5         -3.9713    3.5973   54.0705 C.ar    1  ZINC000892389374    0.2200
      6 N6         -3.5772    4.1610   55.2893 N.am    1  ZINC000892389374   -0.5700
      7 C7         -3.6173    3.4870   56.5962 C.3     1  ZINC000892389374    0.0600
      8 C8         -3.0801    4.5499   57.5739 C.3     1  ZINC000892389374    0.0400
      9 O9         -2.7966    5.6993   56.7245 O.3     1  ZINC000892389374   -0.3200
     10 C10        -3.0964    5.4007   55.4553 C.2     1  ZINC000892389374    0.6400
     11 O11        -2.9538    6.1849   54.5381 O.2     1  ZINC000892389374   -0.5000
     12 C12        -3.0143    3.1670   53.1627 C.ar    1  ZINC000892389374   -0.2300
     13 C13        -3.4091    2.6034   51.9577 C.ar    1  ZINC000892389374    0.2400
     14 N14        -2.4490    2.1692   51.0411 N.pl3   1  ZINC000892389374   -0.7400
     15 C15        -1.1203    2.7861   51.0244 C.3     1  ZINC000892389374    0.2000
     16 C16        -0.3211    2.2266   49.8758 C.2     1  ZINC000892389374   -0.2400
     17 C17        -0.8173    1.7621   48.7251 C.2     1  ZINC000892389374    0.0600
     18 N18         0.0901    1.3249   47.8755 N.2     1  ZINC000892389374   -0.4500
     19 C19         1.3243    1.3947   48.2453 C.2     1  ZINC000892389374    0.0200
     20 C20         2.4999    0.9463   47.4160 C.3     1  ZINC000892389374   -0.0900
     21 C21         2.8937   -0.4767   47.8168 C.3     1  ZINC000892389374    0.4600
     22 F22         3.2568   -0.4972   49.1677 F       1  ZINC000892389374   -0.1800
     23 F23         1.8088   -1.3359   47.6124 F       1  ZINC000892389374   -0.1800
     24 F24         3.9759   -0.8983   47.0367 F       1  ZINC000892389374   -0.1700
     25 S25         1.4332    2.0763   49.8096 S.3     1  ZINC000892389374    0.1900
     26 H26        -5.3069    0.7977   50.4674 H       1  ZINC000892389374    0.0700
     27 H27        -6.1416    2.3108   50.0409 H       1  ZINC000892389374    0.0700
     28 H28        -4.4357    2.0777   49.5893 H       1  ZINC000892389374    0.0600
     29 H29        -6.7611    2.8120   52.3331 H       1  ZINC000892389374    0.1300
     30 H30        -6.0662    3.8022   54.4751 H       1  ZINC000892389374    0.1200
     31 H31        -4.6400    3.2119   56.8538 H       1  ZINC000892389374    0.1000
     32 H32        -2.9724    2.6083   56.5937 H       1  ZINC000892389374    0.1000
     33 H33        -3.8360    4.8017   58.3177 H       1  ZINC000892389374    0.1100
     34 H34        -2.1688    4.1984   58.0576 H       1  ZINC000892389374    0.1100
     35 H35        -1.9643    3.2672   53.3950 H       1  ZINC000892389374    0.1600
     36 H36        -2.6619    1.4590   50.4154 H       1  ZINC000892389374    0.4000
     37 H37        -1.2220    3.8647   50.9049 H       1  ZINC000892389374    0.0900
     38 H38        -0.6081    2.5710   51.9622 H       1  ZINC000892389374    0.0800
     39 H39        -1.8755    1.7465   48.5093 H       1  ZINC000892389374    0.1800
     40 H40         2.2279    0.9644   46.3605 H       1  ZINC000892389374    0.1300
     41 H41         3.3416    1.6177   47.5857 H       1  ZINC000892389374    0.1400
@<TRIPOS>BOND
     1     1     2    1
     2     1    26    1
     3     1    27    1
     4     1    28    1
     5     2    13   ar
     6     2     3   ar
     7     3     4   ar
     8     3    29    1
     9     4     5   ar
    10     4    30    1
    11     5     6    1
    12     5    12   ar
    13     6    10   am
    14     6     7    1
    15     7     8    1
    16     7    31    1
    17     7    32    1
    18     8     9    1
    19     8    33    1
    20     8    34    1
    21     9    10    1
    22    10    11    2
    23    12    13   ar
    24    12    35    1
    25    13    14    1
    26    14    15    1
    27    14    36    1
    28    15    16    1
    29    15    37    1
    30    15    38    1
    31    16    25    1
    32    16    17    2
    33    17    18    1
    34    17    39    1
    35    18    19    2
    36    19    20    1
    37    19    25    1
    38    20    21    1
    39    20    40    1
    40    20    41    1
    41    21    22    1
    42    21    23    1
    43    21    24    1
@<TRIPOS>SUBSTRUCTURE
     1 ZINC000892389374        1 TEMP              0 ****  ****    0 ROOT


##########                                Name:    ZINC000534799364
##########                DOCK_Rotatable_Bonds:                   4
##########                         Heavy_Atoms:                  29
##########                    Molecular_Weight:             391.491
##########                DOCK_Rotatable_Bonds:                   4
##########                       Formal_Charge:           0.0199998
##########                     HBond_Acceptors:                   6
##########                        HBond_Donors:                   0
##########                         Heavy_Atoms:                  29
##########                          Grid_Score:          -29.940889
##########                     Grid_vdw_energy:          -29.186897
##########                      Grid_es_energy:           -0.753991
##########           Internal_energy_repulsive:           12.074547

@<TRIPOS>MOLECULE
ZINC000534799364
 55 59 1 0 0
SMALL
USER_CHARGES


@<TRIPOS>ATOM
      1 C1        -11.4607    0.3249   52.3439 C.3     1  ZINC000534799364   -0.1100
      2 C2        -11.0145    0.1667   53.7746 C.ar    1  ZINC000534799364   -0.0200
      3 C3        -11.7566   -0.5853   54.6703 C.ar    1  ZINC000534799364   -0.1700
      4 C4        -11.3169   -0.7086   55.9754 C.ar    1  ZINC000534799364    0.1000
      5 N5        -10.2055   -0.1220   56.3745 N.ar    1  ZINC000534799364   -0.4800
      6 C6         -9.4696    0.6024   55.5551 C.ar    1  ZINC000534799364    0.0800
      7 C7         -9.8425    0.7682   54.2275 C.ar    1  ZINC000534799364    0.0300
      8 N8         -9.0597    1.5363   53.3620 N.3     1  ZINC000534799364   -0.5000
      9 C9         -7.6389    1.1805   53.4812 C.3     1  ZINC000534799364    0.0600
     10 C10        -6.8271    1.9851   52.4634 C.3     1  ZINC000534799364    0.0600
     11 N11        -7.0295    3.4207   52.7040 N.3     1  ZINC000534799364   -0.5300
     12 C12        -6.2064    4.2282   51.7939 C.3     1  ZINC000534799364    0.1400
     13 C13        -4.7520    3.8916   51.9998 C.2     1  ZINC000534799364    0.1100
     14 N14        -3.9301    3.4514   51.0825 N.2     1  ZINC000534799364   -0.2800
     15 N15        -2.6753    3.2615   51.6736 N.pl3   1  ZINC000534799364   -0.3100
     16 C16        -1.5201    2.7985   51.0270 C.ar    1  ZINC000534799364    0.1500
     17 C17        -1.6271    2.0659   49.8526 C.ar    1  ZINC000534799364   -0.1000
     18 C18        -0.4884    1.6109   49.2175 C.ar    1  ZINC000534799364   -0.1300
     19 C19         0.7597    1.8849   49.7513 C.ar    1  ZINC000534799364    0.1000
     20 F20         1.8726    1.4392   49.1284 F       1  ZINC000534799364   -0.1300
     21 C21         0.8685    2.6155   50.9228 C.ar    1  ZINC000534799364   -0.1300
     22 C22        -0.2678    3.0772   51.5577 C.ar    1  ZINC000534799364   -0.0800
     23 C23        -2.7744    3.6041   52.9806 C.2     1  ZINC000534799364    0.0500
     24 C24        -4.0461    4.0022   53.2062 C.2     1  ZINC000534799364   -0.2200
     25 C25        -4.2207    4.4003   54.6561 C.3     1  ZINC000534799364   -0.0400
     26 C26        -3.0068    3.7874   55.3881 C.3     1  ZINC000534799364   -0.1200
     27 C27        -1.9616    3.6960   54.2536 C.3     1  ZINC000534799364   -0.0500
     28 C28        -8.4503    3.7765   52.5848 C.3     1  ZINC000534799364    0.0600
     29 C29        -9.2621    2.9718   53.6026 C.3     1  ZINC000534799364    0.0600
     30 H30       -10.9643   -0.4216   51.7238 H       1  ZINC000534799364    0.0800
     31 H31       -12.5404    0.1883   52.2827 H       1  ZINC000534799364    0.0600
     32 H32       -11.2001    1.3224   51.9903 H       1  ZINC000534799364    0.0800
     33 H33       -12.6684   -1.0692   54.3530 H       1  ZINC000534799364    0.1400
     34 H34       -11.8921   -1.2935   56.6779 H       1  ZINC000534799364    0.1600
     35 H35        -8.5655    1.0680   55.9187 H       1  ZINC000534799364    0.1500
     36 H36        -7.2897    1.4101   54.4880 H       1  ZINC000534799364    0.0500
     37 H37        -7.5131    0.1154   53.2864 H       1  ZINC000534799364    0.0800
     38 H38        -5.7693    1.7442   52.5697 H       1  ZINC000534799364    0.0900
     39 H39        -7.1577    1.7352   51.4552 H       1  ZINC000534799364    0.0500
     40 H40        -6.4867    4.0129   50.7628 H       1  ZINC000534799364    0.1000
     41 H41        -6.3673    5.2862   52.0008 H       1  ZINC000534799364    0.0500
     42 H42        -2.6003    1.8518   49.4362 H       1  ZINC000534799364    0.1400
     43 H43        -0.5713    1.0406   48.3041 H       1  ZINC000534799364    0.1500
     44 H44         1.8426    2.8278   51.3379 H       1  ZINC000534799364    0.1500
     45 H45        -0.1826    3.6471   52.4710 H       1  ZINC000534799364    0.1400
     46 H46        -4.2137    5.4858   54.7543 H       1  ZINC000534799364    0.0800
     47 H47        -5.1492    3.9894   55.0525 H       1  ZINC000534799364    0.0700
     48 H48        -2.6590    4.4458   56.1840 H       1  ZINC000534799364    0.0800
     49 H49        -3.2469    2.7988   55.7796 H       1  ZINC000534799364    0.0800
     50 H50        -1.3486    2.8029   54.3742 H       1  ZINC000534799364    0.0800
     51 H51        -1.3350    4.5879   54.2431 H       1  ZINC000534799364    0.0900
     52 H52        -8.5761    4.8415   52.7797 H       1  ZINC000534799364    0.0900
     53 H53        -8.7994    3.5469   51.5781 H       1  ZINC000534799364    0.0500
     54 H54       -10.3199    3.2128   53.4964 H       1  ZINC000534799364    0.0800
     55 H55        -8.9314    3.2217   54.6107 H       1  ZINC000534799364    0.0500
@<TRIPOS>BOND
     1     1     2    1
     2     1    30    1
     3     1    31    1
     4     1    32    1
     5     2     7   ar
     6     2     3   ar
     7     3     4   ar
     8     3    33    1
     9     4     5   ar
    10     4    34    1
    11     5     6   ar
    12     6     7   ar
    13     6    35    1
    14     7     8    1
    15     8    29    1
    16     8     9    1
    17     9    10    1
    18     9    36    1
    19     9    37    1
    20    10    11    1
    21    10    38    1
    22    10    39    1
    23    11    12    1
    24    11    28    1
    25    12    13    1
    26    12    40    1
    27    12    41    1
    28    13    24    1
    29    13    14    2
    30    14    15    1
    31    15    16    1
    32    15    23    1
    33    16    22   ar
    34    16    17   ar
    35    17    18   ar
    36    17    42    1
    37    18    19   ar
    38    18    43    1
    39    19    20    1
    40    19    21   ar
    41    21    22   ar
    42    21    44    1
    43    22    45    1
    44    23    27    1
    45    23    24    2
    46    24    25    1
    47    25    26    1
    48    25    46    1
    49    25    47    1
    50    26    27    1
    51    26    48    1
    52    26    49    1
    53    27    50    1
    54    27    51    1
    55    28    29    1
    56    28    52    1
    57    28    53    1
    58    29    54    1
    59    29    55    1
@<TRIPOS>SUBSTRUCTURE
     1 ZINC000534799364        1 TEMP              0 ****  ****    0 ROOT


##########                                Name:    ZINC000089894387
##########                DOCK_Rotatable_Bonds:                   8
##########                         Heavy_Atoms:                  22
##########                    Molecular_Weight:             326.823
##########                DOCK_Rotatable_Bonds:                   8
##########                       Formal_Charge:          -0.0300003
##########                     HBond_Acceptors:                   6
##########                        HBond_Donors:                   2
##########                         Heavy_Atoms:                  22
##########                          Grid_Score:          -29.924112
##########                     Grid_vdw_energy:          -27.139725
##########                      Grid_es_energy:           -2.784387
##########           Internal_energy_repulsive:           11.352921

@<TRIPOS>MOLECULE
ZINC000089894387
 45 46 1 0 0
SMALL
USER_CHARGES


@<TRIPOS>ATOM
      1 C1          2.9267    1.3522   59.3583 C.3     1  ZINC000089894387   -0.1700
      2 C2          1.6210    2.0354   59.7700 C.3     1  ZINC000089894387    0.1700
      3 H3          1.7801    3.1116   59.8385 H       1  ZINC000089894387    0.0900
      4 N4          0.5876    1.7571   58.7697 N.am    1  ZINC000089894387   -0.7400
      5 C5          0.4343    2.5789   57.7126 C.2     1  ZINC000089894387    0.7100
      6 O6          1.1527    3.5522   57.5899 O.2     1  ZINC000089894387   -0.5900
      7 N7         -0.5154    2.3220   56.7914 N.am    1  ZINC000089894387   -0.7500
      8 C8         -0.6809    3.2143   55.6414 C.3     1  ZINC000089894387    0.1400
      9 C9         -2.1484    3.2218   55.2087 C.3     1  ZINC000089894387    0.0500
     10 O10        -2.3113    4.0984   54.0920 O.3     1  ZINC000089894387   -0.3100
     11 C11        -2.2882    3.5340   52.8560 C.ar    1  ZINC000089894387    0.1400
     12 C12        -1.1701    3.6777   52.0475 C.ar    1  ZINC000089894387   -0.2100
     13 C13        -1.1484    3.1032   50.7912 C.ar    1  ZINC000089894387   -0.0700
     14 C14        -2.2395    2.3852   50.3389 C.ar    1  ZINC000089894387   -0.1500
     15 C15        -3.3568    2.2403   51.1431 C.ar    1  ZINC000089894387    0.0000
     16 Cl16       -4.7255    1.3381   50.5721 Cl      1  ZINC000089894387   -0.0600
     17 C17        -3.3805    2.8083   52.4032 C.ar    1  ZINC000089894387   -0.1500
     18 C18         1.1716    1.4988   61.1305 C.3     1  ZINC000089894387   -0.1000
     19 C19        -0.0329    2.3045   61.6267 C.3     1  ZINC000089894387   -0.1600
     20 C20        -0.5242    1.7108   62.9496 C.3     1  ZINC000089894387    0.0600
     21 O21        -0.8550    0.3338   62.7585 O.3     1  ZINC000089894387   -0.3800
     22 C22         0.2443   -0.4778   62.3401 C.3     1  ZINC000089894387    0.0600
     23 C23         0.7664    0.0280   60.9927 C.3     1  ZINC000089894387   -0.1500
     24 H24         2.7677    0.2760   59.2899 H       1  ZINC000089894387    0.0600
     25 H25         3.2468    1.7345   58.3891 H       1  ZINC000089894387    0.0600
     26 H26         3.6956    1.5593   60.1026 H       1  ZINC000089894387    0.0700
     27 H27         0.0137    0.9813   58.8682 H       1  ZINC000089894387    0.3900
     28 H28        -1.0893    1.5462   56.8899 H       1  ZINC000089894387    0.4000
     29 H29        -0.3787    4.2241   55.9186 H       1  ZINC000089894387    0.0800
     30 H30        -0.0608    2.8629   54.8167 H       1  ZINC000089894387    0.0900
     31 H31        -2.4489    2.2129   54.9255 H       1  ZINC000089894387    0.0900
     32 H32        -2.7693    3.5672   56.0354 H       1  ZINC000089894387    0.0700
     33 H33        -0.3172    4.2388   52.3999 H       1  ZINC000089894387    0.1300
     34 H34        -0.2781    3.2155   50.1617 H       1  ZINC000089894387    0.1400
     35 H35        -2.2205    1.9369   49.3565 H       1  ZINC000089894387    0.1400
     36 H36        -4.2520    2.6949   53.0308 H       1  ZINC000089894387    0.1400
     37 H37         1.9899    1.5862   61.8453 H       1  ZINC000089894387    0.0800
     38 H38         0.2615    3.3427   61.7803 H       1  ZINC000089894387    0.0700
     39 H39        -0.8323    2.2573   60.8872 H       1  ZINC000089894387    0.0800
     40 H40         0.2618    1.7951   63.7000 H       1  ZINC000089894387    0.0500
     41 H41        -1.4076    2.2536   63.2858 H       1  ZINC000089894387    0.0900
     42 H42         1.0405   -0.4221   63.0826 H       1  ZINC000089894387    0.0500
     43 H43        -0.0854   -1.5115   62.2374 H       1  ZINC000089894387    0.1000
     44 H44        -0.0168   -0.0652   60.2404 H       1  ZINC000089894387    0.0800
     45 H45         1.6327   -0.5619   60.6931 H       1  ZINC000089894387    0.0800
@<TRIPOS>BOND
     1     1     2    1
     2     1    24    1
     3     1    25    1
     4     1    26    1
     5     2     3    1
     6     2     4    1
     7     2    18    1
     8     4     5   am
     9     4    27    1
    10     5     6    2
    11     5     7   am
    12     7     8    1
    13     7    28    1
    14     8     9    1
    15     8    29    1
    16     8    30    1
    17     9    10    1
    18     9    31    1
    19     9    32    1
    20    10    11    1
    21    11    17   ar
    22    11    12   ar
    23    12    13   ar
    24    12    33    1
    25    13    14   ar
    26    13    34    1
    27    14    15   ar
    28    14    35    1
    29    15    16    1
    30    15    17   ar
    31    17    36    1
    32    18    23    1
    33    18    19    1
    34    18    37    1
    35    19    20    1
    36    19    38    1
    37    19    39    1
    38    20    21    1
    39    20    40    1
    40    20    41    1
    41    21    22    1
    42    22    23    1
    43    22    42    1
    44    22    43    1
    45    23    44    1
    46    23    45    1
@<TRIPOS>SUBSTRUCTURE
     1 ZINC000089894387        1 TEMP              0 ****  ****    0 ROOT


##########                                Name:    ZINC001326371752
##########                DOCK_Rotatable_Bonds:                   5
##########                         Heavy_Atoms:                  25
##########                    Molecular_Weight:             360.397
##########                DOCK_Rotatable_Bonds:                   5
##########                       Formal_Charge:           0.0199999
##########                     HBond_Acceptors:                  10
##########                        HBond_Donors:                   0
##########                         Heavy_Atoms:                  25
##########                          Grid_Score:          -29.913200
##########                     Grid_vdw_energy:          -29.790087
##########                      Grid_es_energy:           -0.123113
##########           Internal_energy_repulsive:           10.329948

@<TRIPOS>MOLECULE
ZINC001326371752
 41 44 1 0 0
SMALL
USER_CHARGES


@<TRIPOS>ATOM
      1 C1         -2.7312    2.9806   50.9805 C.3     1  ZINC001326371752    0.0300
      2 O2         -3.6145    2.5154   49.9580 O.3     1  ZINC001326371752   -0.3800
      3 C3         -4.5477    1.5279   50.4010 C.3     1  ZINC001326371752    0.0500
      4 C4         -5.4968    2.1477   51.4285 C.3     1  ZINC001326371752    0.1200
      5 N5         -6.4926    1.1533   51.8355 N.pl3   1  ZINC001326371752   -0.2800
      6 N6         -6.3847   -0.1263   51.7034 N.2     1  ZINC001326371752   -0.0800
      7 N7         -7.4386   -0.7133   52.1612 N.2     1  ZINC001326371752   -0.2500
      8 C8         -8.2764    0.2128   52.6131 C.2     1  ZINC001326371752   -0.0400
      9 C9         -7.6770    1.4133   52.4176 C.2     1  ZINC001326371752    0.0000
     10 C10        -8.2750    2.7413   52.7966 C.3     1  ZINC001326371752   -0.0600
     11 C11        -9.7850    2.5618   53.0024 C.3     1  ZINC001326371752    0.1200
     12 N12       -10.0240    1.3509   53.8015 N.am    1  ZINC001326371752   -0.6100
     13 C13       -10.5799    1.4315   55.0266 C.2     1  ZINC001326371752    0.6100
     14 O14       -10.8905    2.5158   55.4837 O.2     1  ZINC001326371752   -0.5100
     15 C15       -10.8108    0.2119   55.8094 C.2     1  ZINC001326371752   -0.3400
     16 C16        -9.9216   -0.1634   56.8231 C.2     1  ZINC001326371752    0.2400
     17 N17       -10.1606   -1.2664   57.5067 N.2     1  ZINC001326371752   -0.5100
     18 C18       -11.2181   -2.0285   57.2607 C.2     1  ZINC001326371752    0.2900
     19 S19       -11.7411   -3.4924   58.0025 S.3     1  ZINC001326371752    0.2500
     20 C20       -13.1796   -3.6695   56.9852 C.2     1  ZINC001326371752   -0.2100
     21 C21       -13.1645   -2.6282   56.1704 C.2     1  ZINC001326371752    0.0500
     22 N22       -12.1280   -1.7349   56.2952 N.am    1  ZINC001326371752   -0.4600
     23 C23       -11.9372   -0.6016   55.5577 C.2     1  ZINC001326371752    0.5500
     24 O24       -12.7314   -0.2967   54.6849 O.2     1  ZINC001326371752   -0.5000
     25 C25        -9.6395    0.0455   53.2351 C.3     1  ZINC001326371752    0.2000
     26 H26        -2.0550    3.7272   50.5644 H       1  ZINC001326371752    0.0900
     27 H27        -3.3126    3.4265   51.7876 H       1  ZINC001326371752    0.0500
     28 H28        -2.1526    2.1429   51.3696 H       1  ZINC001326371752    0.0500
     29 H29        -5.1221    1.1629   49.5494 H       1  ZINC001326371752    0.0600
     30 H30        -4.0088    0.6980   50.8583 H       1  ZINC001326371752    0.0600
     31 H31        -4.9279    2.4702   52.3004 H       1  ZINC001326371752    0.1200
     32 H32        -6.0011    3.0066   50.9856 H       1  ZINC001326371752    0.1200
     33 H33        -7.8198    3.0967   53.7210 H       1  ZINC001326371752    0.0900
     34 H34        -8.0982    3.4628   51.9988 H       1  ZINC001326371752    0.1000
     35 H35       -10.1867    3.4290   53.5265 H       1  ZINC001326371752    0.1100
     36 H36       -10.2751    2.4615   52.0340 H       1  ZINC001326371752    0.0800
     37 H37        -9.0533    0.4403   57.0420 H       1  ZINC001326371752    0.1900
     38 H38       -13.9135   -4.4609   57.0221 H       1  ZINC001326371752    0.2200
     39 H39       -13.9398   -2.4849   55.4325 H       1  ZINC001326371752    0.2000
     40 H40       -10.3567   -0.2531   52.4705 H       1  ZINC001326371752    0.1000
     41 H41        -9.6027   -0.7053   54.0244 H       1  ZINC001326371752    0.1000
@<TRIPOS>BOND
     1     1     2    1
     2     1    26    1
     3     1    27    1
     4     1    28    1
     5     2     3    1
     6     3     4    1
     7     3    29    1
     8     3    30    1
     9     4     5    1
    10     4    31    1
    11     4    32    1
    12     5     9    1
    13     5     6    1
    14     6     7    2
    15     7     8    1
    16     8    25    1
    17     8     9    2
    18     9    10    1
    19    10    11    1
    20    10    33    1
    21    10    34    1
    22    11    12    1
    23    11    35    1
    24    11    36    1
    25    12    13   am
    26    12    25    1
    27    13    14    2
    28    13    15    1
    29    15    23    1
    30    15    16    2
    31    16    17    1
    32    16    37    1
    33    17    18    2
    34    18    22    1
    35    18    19    1
    36    19    20    1
    37    20    21    2
    38    20    38    1
    39    21    22    1
    40    21    39    1
    41    22    23   am
    42    23    24    2
    43    25    40    1
    44    25    41    1
@<TRIPOS>SUBSTRUCTURE
     1 ZINC001326371752        1 TEMP              0 ****  ****    0 ROOT


##########                                Name:    ZINC000482910431
##########                DOCK_Rotatable_Bonds:                   7
##########                         Heavy_Atoms:                  29
##########                    Molecular_Weight:             414.867
##########                DOCK_Rotatable_Bonds:                   7
##########                       Formal_Charge:          -0.0300001
##########                     HBond_Acceptors:                   8
##########                        HBond_Donors:                   2
##########                         Heavy_Atoms:                  29
##########                          Grid_Score:          -29.881247
##########                     Grid_vdw_energy:          -29.554064
##########                      Grid_es_energy:           -0.327184
##########           Internal_energy_repulsive:           18.187786

@<TRIPOS>MOLECULE
ZINC000482910431
 49 51 1 0 0
SMALL
USER_CHARGES


@<TRIPOS>ATOM
      1 C1        -14.9526    0.3535   53.9081 C.3     1  ZINC000482910431   -0.1500
      2 C2        -14.0249    0.4198   55.1229 C.3     1  ZINC000482910431    0.0800
      3 C3        -14.2420    1.7437   55.8587 C.3     1  ZINC000482910431   -0.1400
      4 C4        -14.3235   -0.7003   56.0301 C.1     1  ZINC000482910431    0.2100
      5 N5        -14.5539   -1.5647   56.7303 N.1     1  ZINC000482910431   -0.4300
      6 C6        -12.5918    0.3280   54.6663 C.ar    1  ZINC000482910431   -0.1000
      7 C7        -11.5662    0.4266   55.5886 C.ar    1  ZINC000482910431   -0.0900
      8 C8        -10.2516    0.3425   55.1734 C.ar    1  ZINC000482910431   -0.1200
      9 C9         -9.9603    0.1585   53.8282 C.ar    1  ZINC000482910431    0.1700
     10 N10        -8.6293    0.0723   53.4043 N.am    1  ZINC000482910431   -0.6800
     11 C11        -8.0596    1.1085   52.7578 C.2     1  ZINC000482910431    0.7100
     12 O12        -8.7020    2.1182   52.5427 O.2     1  ZINC000482910431   -0.5500
     13 N13        -6.7778    1.0256   52.3495 N.am    1  ZINC000482910431   -0.7300
     14 C14        -6.1590    2.1513   51.6452 C.3     1  ZINC000482910431    0.1400
     15 H15        -6.7839    2.4674   50.8099 H       1  ZINC000482910431    0.1400
     16 C16        -5.9167    3.3299   52.6163 C.3     1  ZINC000482910431   -0.1400
     17 C17        -4.5747    3.8936   52.0988 C.3     1  ZINC000482910431    0.0900
     18 N18        -3.9075    2.7679   51.4342 N.am    1  ZINC000482910431   -0.5600
     19 C19        -2.5434    2.7305   51.1231 C.ar    1  ZINC000482910431    0.2000
     20 C20        -2.1234    2.2330   49.8966 C.ar    1  ZINC000482910431   -0.1600
     21 C21        -0.7767    2.1967   49.5907 C.ar    1  ZINC000482910431   -0.0500
     22 C22         0.1545    2.6553   50.5048 C.ar    1  ZINC000482910431   -0.1000
     23 Cl23        1.8460    2.6080   50.1169 Cl      1  ZINC000482910431   -0.0500
     24 C24        -0.2610    3.1531   51.7300 C.ar    1  ZINC000482910431    0.1400
     25 F25         0.6502    3.6010   52.6212 F       1  ZINC000482910431   -0.1200
     26 C26        -1.6085    3.1961   52.0382 C.ar    1  ZINC000482910431   -0.1900
     27 C27        -4.7762    1.7763   51.1596 C.2     1  ZINC000482910431    0.5000
     28 O28        -4.4898    0.7348   50.6078 O.2     1  ZINC000482910431   -0.4800
     29 C29       -10.9925    0.0599   52.9044 C.ar    1  ZINC000482910431   -0.1400
     30 C30       -12.3050    0.1395   53.3267 C.ar    1  ZINC000482910431   -0.0900
     31 H31       -14.7315    1.1829   53.2364 H       1  ZINC000482910431    0.0800
     32 H32       -14.7979   -0.5897   53.3839 H       1  ZINC000482910431    0.0700
     33 H33       -15.9892    0.4198   54.2384 H       1  ZINC000482910431    0.0700
     34 H34       -15.2786    1.8100   56.1890 H       1  ZINC000482910431    0.0700
     35 H35       -13.5811    1.7910   56.7241 H       1  ZINC000482910431    0.0700
     36 H36       -14.0209    2.5731   55.1869 H       1  ZINC000482910431    0.0800
     37 H37       -11.7933    0.5700   56.6347 H       1  ZINC000482910431    0.1400
     38 H38        -9.4510    0.4199   55.8942 H       1  ZINC000482910431    0.1400
     39 H39        -8.1170   -0.7332   53.5758 H       1  ZINC000482910431    0.4100
     40 H40        -6.2651    0.2205   52.5221 H       1  ZINC000482910431    0.4000
     41 H41        -6.7098    4.0730   52.5333 H       1  ZINC000482910431    0.1100
     42 H42        -5.8213    2.9763   53.6429 H       1  ZINC000482910431    0.1000
     43 H43        -4.7534    4.6995   51.3871 H       1  ZINC000482910431    0.0900
     44 H44        -3.9699    4.2520   52.9318 H       1  ZINC000482910431    0.1000
     45 H45        -2.8494    1.8742   49.1821 H       1  ZINC000482910431    0.1700
     46 H46        -0.4505    1.8092   48.6368 H       1  ZINC000482910431    0.1500
     47 H47        -1.9329    3.5842   52.9924 H       1  ZINC000482910431    0.1500
     48 H48       -10.7692   -0.0832   51.8575 H       1  ZINC000482910431    0.1300
     49 H49       -13.1083    0.0625   52.6088 H       1  ZINC000482910431    0.1300
@<TRIPOS>BOND
     1     1     2    1
     2     1    31    1
     3     1    32    1
     4     1    33    1
     5     2     3    1
     6     2     4    1
     7     2     6    1
     8     3    34    1
     9     3    35    1
    10     3    36    1
    11     4     5    3
    12     6    30   ar
    13     6     7   ar
    14     7     8   ar
    15     7    37    1
    16     8     9   ar
    17     8    38    1
    18     9    10    1
    19     9    29   ar
    20    10    11   am
    21    10    39    1
    22    11    12    2
    23    11    13   am
    24    13    14    1
    25    13    40    1
    26    14    15    1
    27    14    27    1
    28    14    16    1
    29    16    17    1
    30    16    41    1
    31    16    42    1
    32    17    18    1
    33    17    43    1
    34    17    44    1
    35    18    19    1
    36    18    27   am
    37    19    26   ar
    38    19    20   ar
    39    20    21   ar
    40    20    45    1
    41    21    22   ar
    42    21    46    1
    43    22    23    1
    44    22    24   ar
    45    24    25    1
    46    24    26   ar
    47    26    47    1
    48    27    28    2
    49    29    30   ar
    50    29    48    1
    51    30    49    1
@<TRIPOS>SUBSTRUCTURE
     1 ZINC000482910431        1 TEMP              0 ****  ****    0 ROOT


##########                                Name:    ZINC001400108193
##########                DOCK_Rotatable_Bonds:                   9
##########                         Heavy_Atoms:                  25
##########                    Molecular_Weight:              344.41
##########                DOCK_Rotatable_Bonds:                   9
##########                       Formal_Charge:           0.0200001
##########                     HBond_Acceptors:                   6
##########                        HBond_Donors:                   2
##########                         Heavy_Atoms:                  25
##########                          Grid_Score:          -29.880445
##########                     Grid_vdw_energy:          -29.368183
##########                      Grid_es_energy:           -0.512262
##########           Internal_energy_repulsive:            7.485072

@<TRIPOS>MOLECULE
ZINC001400108193
 49 50 1 0 0
SMALL
USER_CHARGES


@<TRIPOS>ATOM
      1 C1         -8.7998    0.0162   60.8706 C.3     1  ZINC001400108193   -0.0800
      2 C2         -8.6203    0.3283   59.4072 C.2     1  ZINC001400108193   -0.0100
      3 C3         -9.6130    0.5267   58.5266 C.2     1  ZINC001400108193   -0.1600
      4 C4         -8.9610    0.7971   57.2368 C.2     1  ZINC001400108193   -0.2300
      5 C5         -9.6181    1.0797   55.9484 C.2     1  ZINC001400108193    0.5900
      6 O6        -10.8320    1.0995   55.8762 O.2     1  ZINC001400108193   -0.5300
      7 N7         -8.8739    1.3164   54.8499 N.am    1  ZINC001400108193   -0.7300
      8 C8         -9.5272    1.5956   53.5687 C.3     1  ZINC001400108193    0.1100
      9 C9         -8.7025    2.6215   52.7886 C.3     1  ZINC001400108193    0.1300
     10 H10        -9.1596    2.7894   51.8135 H       1  ZINC001400108193    0.1000
     11 C11        -8.6598    3.9388   53.5656 C.3     1  ZINC001400108193   -0.1600
     12 N12        -7.3391    2.1166   52.6083 N.am    1  ZINC001400108193   -0.7300
     13 C13        -6.5499    2.6358   51.6470 C.2     1  ZINC001400108193    0.5200
     14 O14        -6.9679    3.5220   50.9323 O.2     1  ZINC001400108193   -0.5100
     15 C15        -5.1480    2.1152   51.4603 C.3     1  ZINC001400108193    0.0700
     16 H16        -4.6710    1.9988   52.4334 H       1  ZINC001400108193    0.1000
     17 C17        -5.1974    0.7603   50.7512 C.3     1  ZINC001400108193   -0.1800
     18 O18        -4.3980    3.0395   50.6697 O.3     1  ZINC001400108193   -0.2800
     19 C19        -3.0535    3.0699   50.8655 C.ar    1  ZINC001400108193    0.1200
     20 C20        -2.2127    2.3530   50.0265 C.ar    1  ZINC001400108193   -0.2100
     21 C21        -0.8464    2.3860   50.2275 C.ar    1  ZINC001400108193   -0.0800
     22 C22        -0.3170    3.1284   51.2668 C.ar    1  ZINC001400108193   -0.1200
     23 C23         1.1735    3.1576   51.4875 C.3     1  ZINC001400108193   -0.1100
     24 C24        -1.1525    3.8480   52.1012 C.ar    1  ZINC001400108193   -0.0800
     25 C25        -2.5195    3.8184   51.9044 C.ar    1  ZINC001400108193   -0.1400
     26 C26        -7.6208    0.7258   57.4809 C.2     1  ZINC001400108193    0.0200
     27 O27        -7.4419    0.4522   58.7768 O.3     1  ZINC001400108193   -0.1700
     28 H28        -8.8527   -1.0638   61.0079 H       1  ZINC001400108193    0.0900
     29 H29        -7.9546    0.4130   61.4331 H       1  ZINC001400108193    0.0800
     30 H30        -9.7219    0.4737   61.2293 H       1  ZINC001400108193    0.0900
     31 H31       -10.6741    0.4947   58.7248 H       1  ZINC001400108193    0.1600
     32 H32        -7.9057    1.3018   54.9077 H       1  ZINC001400108193    0.4000
     33 H33       -10.5257    1.9937   53.7491 H       1  ZINC001400108193    0.0800
     34 H34        -9.6022    0.6746   52.9908 H       1  ZINC001400108193    0.0900
     35 H35        -8.0724    4.6696   53.0099 H       1  ZINC001400108193    0.0700
     36 H36        -9.6743    4.3144   53.6998 H       1  ZINC001400108193    0.0700
     37 H37        -8.2027    3.7708   54.5408 H       1  ZINC001400108193    0.0600
     38 H38        -7.0044    1.4086   53.1807 H       1  ZINC001400108193    0.4000
     39 H39        -5.7695    0.0552   51.3541 H       1  ZINC001400108193    0.0800
     40 H40        -5.6743    0.8767   49.7780 H       1  ZINC001400108193    0.0800
     41 H41        -4.1834    0.3837   50.6161 H       1  ZINC001400108193    0.0800
     42 H42        -2.6262    1.7693   49.2174 H       1  ZINC001400108193    0.1300
     43 H43        -0.1915    1.8278   49.5749 H       1  ZINC001400108193    0.1300
     44 H44         1.6088    3.9799   50.9197 H       1  ZINC001400108193    0.0700
     45 H45         1.3810    3.2985   52.5482 H       1  ZINC001400108193    0.0700
     46 H46         1.6086    2.2154   51.1542 H       1  ZINC001400108193    0.0700
     47 H47        -0.7362    4.4304   52.9098 H       1  ZINC001400108193    0.1300
     48 H48        -3.1719    4.3776   52.5587 H       1  ZINC001400108193    0.1300
     49 H49        -6.8373    0.8689   56.7514 H       1  ZINC001400108193    0.2100
@<TRIPOS>BOND
     1     1     2    1
     2     1    28    1
     3     1    29    1
     4     1    30    1
     5     2    27    1
     6     2     3    2
     7     3     4    1
     8     3    31    1
     9     4     5    1
    10     4    26    2
    11     5     6    2
    12     5     7   am
    13     7     8    1
    14     7    32    1
    15     8     9    1
    16     8    33    1
    17     8    34    1
    18     9    10    1
    19     9    11    1
    20     9    12    1
    21    11    35    1
    22    11    36    1
    23    11    37    1
    24    12    13   am
    25    12    38    1
    26    13    14    2
    27    13    15    1
    28    15    16    1
    29    15    17    1
    30    15    18    1
    31    17    39    1
    32    17    40    1
    33    17    41    1
    34    18    19    1
    35    19    25   ar
    36    19    20   ar
    37    20    21   ar
    38    20    42    1
    39    21    22   ar
    40    21    43    1
    41    22    23    1
    42    22    24   ar
    43    23    44    1
    44    23    45    1
    45    23    46    1
    46    24    25   ar
    47    24    47    1
    48    25    48    1
    49    26    27    1
    50    26    49    1
@<TRIPOS>SUBSTRUCTURE
     1 ZINC001400108193        1 TEMP              0 ****  ****    0 ROOT


##########                                Name:    ZINC000496437542
##########                DOCK_Rotatable_Bonds:                   7
##########                         Heavy_Atoms:                  24
##########                    Molecular_Weight:             338.447
##########                DOCK_Rotatable_Bonds:                   7
##########                       Formal_Charge:           0.0400002
##########                     HBond_Acceptors:                   6
##########                        HBond_Donors:                   1
##########                         Heavy_Atoms:                  24
##########                          Grid_Score:          -29.841105
##########                     Grid_vdw_energy:          -30.136862
##########                      Grid_es_energy:            0.295757
##########           Internal_energy_repulsive:           38.383030

@<TRIPOS>MOLECULE
ZINC000496437542
 54 55 1 0 0
SMALL
USER_CHARGES


@<TRIPOS>ATOM
      1 C1         -0.0240    3.9947   56.8309 C.3     1  ZINC000496437542   -0.1800
      2 C2         -1.4782    3.7324   56.4340 C.3     1  ZINC000496437542    0.1400
      3 C3         -1.9061    2.3555   56.9456 C.3     1  ZINC000496437542   -0.1800
      4 C4         -2.3766    4.8071   57.0495 C.3     1  ZINC000496437542   -0.1400
      5 O5         -1.5995    3.7704   54.9876 O.3     1  ZINC000496437542   -0.3600
      6 C6         -2.8241    3.5561   54.4710 C.2     1  ZINC000496437542    0.6600
      7 O7         -3.7608    3.3170   55.2073 O.2     1  ZINC000496437542   -0.5600
      8 N8         -3.0113    3.6066   53.1373 N.am    1  ZINC000496437542   -0.6000
      9 C9         -1.8924    3.8942   52.2258 C.3     1  ZINC000496437542    0.0800
     10 C10        -1.8732    2.8221   51.1303 C.3     1  ZINC000496437542    0.0500
     11 O11        -3.1702    2.7337   50.5354 O.3     1  ZINC000496437542   -0.3700
     12 C12        -4.2018    2.3282   51.4382 C.3     1  ZINC000496437542    0.0700
     13 H13        -3.9439    1.3641   51.8764 H       1  ZINC000496437542    0.0700
     14 C14        -5.5255    2.2075   50.6806 C.3     1  ZINC000496437542    0.1300
     15 N15        -6.6374    2.2237   51.6343 N.am    1  ZINC000496437542   -0.7200
     16 C16        -6.9383    1.1140   52.3376 C.2     1  ZINC000496437542    0.5600
     17 O17        -6.2860    0.0995   52.1813 O.2     1  ZINC000496437542   -0.5400
     18 C18        -8.0559    1.1297   53.2940 C.2     1  ZINC000496437542   -0.1900
     19 C19        -8.2384    2.1755   54.0708 C.2     1  ZINC000496437542   -0.0600
     20 C20        -9.3852    2.2021   55.0591 C.3     1  ZINC000496437542   -0.1000
     21 C21       -10.6942    2.3623   54.2826 C.3     1  ZINC000496437542   -0.1100
     22 C22       -11.2164    1.0138   53.8219 C.3     1  ZINC000496437542   -0.1200
     23 C23       -10.3417    0.3404   52.7802 C.3     1  ZINC000496437542   -0.1200
     24 C24        -8.9945   -0.0555   53.3757 C.3     1  ZINC000496437542   -0.0800
     25 C25        -4.3391    3.3696   52.5490 C.3     1  ZINC000496437542    0.1000
     26 H26         0.6160    3.2291   56.3924 H       1  ZINC000496437542    0.0900
     27 H27         0.2808    4.9756   56.4664 H       1  ZINC000496437542    0.0600
     28 H28         0.0670    3.9662   57.9167 H       1  ZINC000496437542    0.0700
     29 H29        -1.8151    2.3270   58.0315 H       1  ZINC000496437542    0.0700
     30 H30        -2.9421    2.1687   56.6630 H       1  ZINC000496437542    0.0600
     31 H31        -1.2661    1.5899   56.5072 H       1  ZINC000496437542    0.0900
     32 H32        -2.0718    5.7881   56.6850 H       1  ZINC000496437542    0.0700
     33 H33        -3.4125    4.6202   56.7668 H       1  ZINC000496437542    0.0700
     34 H34        -2.2855    4.7786   58.1354 H       1  ZINC000496437542    0.0800
     35 H35        -2.0295    4.8772   51.7750 H       1  ZINC000496437542    0.0800
     36 H36        -0.9533    3.8711   52.7786 H       1  ZINC000496437542    0.1000
     37 H37        -1.1412    3.0922   50.3692 H       1  ZINC000496437542    0.1100
     38 H38        -1.6069    1.8598   51.5673 H       1  ZINC000496437542    0.0600
     39 H39        -5.6268    3.0450   49.9902 H       1  ZINC000496437542    0.0900
     40 H40        -5.5401    1.2719   50.1214 H       1  ZINC000496437542    0.0800
     41 H41        -7.1569    3.0331   51.7599 H       1  ZINC000496437542    0.4000
     42 H42        -7.5672    3.0190   54.0034 H       1  ZINC000496437542    0.1300
     43 H43        -9.4052    1.2686   55.6216 H       1  ZINC000496437542    0.0800
     44 H44        -9.2599    3.0417   55.7427 H       1  ZINC000496437542    0.0800
     45 H45       -11.4372    2.8339   54.9258 H       1  ZINC000496437542    0.0700
     46 H46       -10.5200    2.9957   53.4128 H       1  ZINC000496437542    0.0700
     47 H47       -11.2944    0.3566   54.6880 H       1  ZINC000496437542    0.0600
     48 H48       -12.2131    1.1514   53.4027 H       1  ZINC000496437542    0.0600
     49 H49       -10.8469   -0.5517   52.4100 H       1  ZINC000496437542    0.0700
     50 H50       -10.1770    1.0285   51.9511 H       1  ZINC000496437542    0.0600
     51 H51        -8.5774   -0.8914   52.8138 H       1  ZINC000496437542    0.0700
     52 H52        -9.1255   -0.3416   54.4193 H       1  ZINC000496437542    0.0800
     53 H53        -5.0213    3.0012   53.3153 H       1  ZINC000496437542    0.1100
     54 H54        -4.7221    4.3015   52.1333 H       1  ZINC000496437542    0.0900
@<TRIPOS>BOND
     1     1     2    1
     2     1    26    1
     3     1    27    1
     4     1    28    1
     5     2     3    1
     6     2     4    1
     7     2     5    1
     8     3    29    1
     9     3    30    1
    10     3    31    1
    11     4    32    1
    12     4    33    1
    13     4    34    1
    14     5     6    1
    15     6     7    2
    16     6     8   am
    17     8    25    1
    18     8     9    1
    19     9    10    1
    20     9    35    1
    21     9    36    1
    22    10    11    1
    23    10    37    1
    24    10    38    1
    25    11    12    1
    26    12    13    1
    27    12    14    1
    28    12    25    1
    29    14    15    1
    30    14    39    1
    31    14    40    1
    32    15    16   am
    33    15    41    1
    34    16    17    2
    35    16    18    1
    36    18    24    1
    37    18    19    2
    38    19    20    1
    39    19    42    1
    40    20    21    1
    41    20    43    1
    42    20    44    1
    43    21    22    1
    44    21    45    1
    45    21    46    1
    46    22    23    1
    47    22    47    1
    48    22    48    1
    49    23    24    1
    50    23    49    1
    51    23    50    1
    52    24    51    1
    53    24    52    1
    54    25    53    1
    55    25    54    1
@<TRIPOS>SUBSTRUCTURE
     1 ZINC000496437542        1 TEMP              0 ****  ****    0 ROOT


##########                                Name:    ZINC000281257088
##########                DOCK_Rotatable_Bonds:                   8
##########                         Heavy_Atoms:                  27
##########                    Molecular_Weight:             395.541
##########                DOCK_Rotatable_Bonds:                   8
##########                       Formal_Charge:          -0.0200005
##########                     HBond_Acceptors:                   7
##########                        HBond_Donors:                   1
##########                         Heavy_Atoms:                  27
##########                          Grid_Score:          -29.828070
##########                     Grid_vdw_energy:          -29.329245
##########                      Grid_es_energy:           -0.498825
##########           Internal_energy_repulsive:           24.989775

@<TRIPOS>MOLECULE
ZINC000281257088
 57 58 1 0 0
SMALL
USER_CHARGES


@<TRIPOS>ATOM
      1 C1         -4.5500    3.0090   51.4413 C.3     1  ZINC000281257088   -0.0700
      2 C2         -3.0499    3.1502   51.4608 C.2     1  ZINC000281257088    0.1000
      3 N3         -2.2135    2.5651   50.6423 N.2     1  ZINC000281257088   -0.3000
      4 N4         -0.9141    2.9545   50.9921 N.pl3   1  ZINC000281257088   -0.3700
      5 C5          0.3211    2.5281   50.3298 C.3     1  ZINC000281257088    0.1500
      6 C6         -0.0240    1.6806   49.1036 C.3     1  ZINC000281257088   -0.6400
      7 S7          1.4919    1.3092   48.1792 S.o2    1  ZINC000281257088    2.4300
      8 C8          2.5697    0.6448   49.4782 C.3     1  ZINC000281257088   -0.6500
      9 O9          1.2122    0.2722   47.2487 O.2     1  ZINC000281257088   -0.9300
     10 O10         2.0473    2.5304   47.7108 O.2     1  ZINC000281257088   -0.9300
     11 C11        -1.0012    3.7917   52.0469 C.2     1  ZINC000281257088    0.0900
     12 C12         0.1537    4.4543   52.7530 C.3     1  ZINC000281257088   -0.1000
     13 C13        -2.3114    3.9342   52.3534 C.2     1  ZINC000281257088   -0.2300
     14 C14        -2.8749    4.7809   53.4654 C.3     1  ZINC000281257088    0.1400
     15 N15        -3.1133    3.9416   54.6472 N.3     1  ZINC000281257088   -0.6700
     16 C16        -3.2833    4.7648   55.8519 C.3     1  ZINC000281257088    0.1400
     17 H17        -2.9883    5.7915   55.6350 H       1  ZINC000281257088    0.0500
     18 C18        -2.4207    4.2178   56.9600 C.ar    1  ZINC000281257088   -0.0800
     19 C19        -2.1574    2.8623   57.0251 C.ar    1  ZINC000281257088   -0.0600
     20 C20        -1.3665    2.3594   58.0409 C.ar    1  ZINC000281257088   -0.1600
     21 C21        -0.8375    3.2140   58.9931 C.ar    1  ZINC000281257088    0.1000
     22 F22        -0.0638    2.7237   59.9862 F       1  ZINC000281257088   -0.1400
     23 C23        -1.1015    4.5715   58.9266 C.ar    1  ZINC000281257088   -0.1600
     24 C24        -1.8886    5.0726   57.9072 C.ar    1  ZINC000281257088   -0.0900
     25 C25        -4.7501    4.7365   56.2862 C.3     1  ZINC000281257088   -0.0600
     26 C26        -4.8624    5.2150   57.7350 C.3     1  ZINC000281257088   -0.1400
     27 C27        -5.5683    5.6583   55.3797 C.3     1  ZINC000281257088   -0.1400
     28 C28        -5.2864    3.3076   56.1781 C.3     1  ZINC000281257088   -0.1500
     29 H29        -4.9784    3.7722   50.7916 H       1  ZINC000281257088    0.0800
     30 H30        -4.8172    2.0209   51.0665 H       1  ZINC000281257088    0.0700
     31 H31        -4.9397    3.1317   52.4519 H       1  ZINC000281257088    0.0800
     32 H32         0.8873    3.4055   50.0173 H       1  ZINC000281257088    0.1100
     33 H33         0.9198    1.9372   51.0230 H       1  ZINC000281257088    0.1100
     34 H34        -0.4908    0.7497   49.4251 H       1  ZINC000281257088    0.1400
     35 H35        -0.7139    2.2310   48.4640 H       1  ZINC000281257088    0.1400
     36 H36         2.1080   -0.2401   49.9160 H       1  ZINC000281257088    0.1300
     37 H37         3.5344    0.3761   49.0477 H       1  ZINC000281257088    0.1300
     38 H38         2.7143    1.3993   50.2515 H       1  ZINC000281257088    0.1300
     39 H39         0.3650    5.4143   52.2821 H       1  ZINC000281257088    0.0800
     40 H40        -0.1033    4.6122   53.8005 H       1  ZINC000281257088    0.0900
     41 H41         1.0345    3.8155   52.6873 H       1  ZINC000281257088    0.0700
     42 H42        -2.1654    5.5693   53.7169 H       1  ZINC000281257088    0.0800
     43 H43        -3.8148    5.2277   53.1414 H       1  ZINC000281257088    0.0300
     44 H44        -3.9090    3.3372   54.5070 H       1  ZINC000281257088    0.3400
     45 H45        -2.5702    2.1958   56.2822 H       1  ZINC000281257088    0.1400
     46 H46        -1.1615    1.3003   58.0919 H       1  ZINC000281257088    0.1300
     47 H47        -0.6895    5.2390   59.6690 H       1  ZINC000281257088    0.1300
     48 H48        -2.0945    6.1316   57.8549 H       1  ZINC000281257088    0.1300
     49 H49        -4.4803    6.2330   57.8120 H       1  ZINC000281257088    0.0600
     50 H50        -5.9073    5.1949   58.0444 H       1  ZINC000281257088    0.0500
     51 H51        -4.2794    4.5583   58.3808 H       1  ZINC000281257088    0.0600
     52 H52        -5.4883    5.3174   54.3475 H       1  ZINC000281257088    0.0500
     53 H53        -6.6133    5.6381   55.6890 H       1  ZINC000281257088    0.0600
     54 H54        -5.1861    6.6762   55.4568 H       1  ZINC000281257088    0.0600
     55 H55        -4.7553    2.6660   56.8810 H       1  ZINC000281257088    0.0500
     56 H56        -6.3509    3.3005   56.4124 H       1  ZINC000281257088    0.0600
     57 H57        -5.1352    2.9386   55.1636 H       1  ZINC000281257088    0.0600
@<TRIPOS>BOND
     1     1     2    1
     2     1    29    1
     3     1    30    1
     4     1    31    1
     5     2    13    1
     6     2     3    2
     7     3     4    1
     8     4     5    1
     9     4    11    1
    10     5     6    1
    11     5    32    1
    12     5    33    1
    13     6     7    1
    14     6    34    1
    15     6    35    1
    16     7     8    1
    17     7     9    2
    18     7    10    2
    19     8    36    1
    20     8    37    1
    21     8    38    1
    22    11    12    1
    23    11    13    2
    24    12    39    1
    25    12    40    1
    26    12    41    1
    27    13    14    1
    28    14    15    1
    29    14    42    1
    30    14    43    1
    31    15    16    1
    32    15    44    1
    33    16    17    1
    34    16    18    1
    35    16    25    1
    36    18    24   ar
    37    18    19   ar
    38    19    20   ar
    39    19    45    1
    40    20    21   ar
    41    20    46    1
    42    21    22    1
    43    21    23   ar
    44    23    24   ar
    45    23    47    1
    46    24    48    1
    47    25    26    1
    48    25    27    1
    49    25    28    1
    50    26    49    1
    51    26    50    1
    52    26    51    1
    53    27    52    1
    54    27    53    1
    55    27    54    1
    56    28    55    1
    57    28    56    1
    58    28    57    1
@<TRIPOS>SUBSTRUCTURE
     1 ZINC000281257088        1 TEMP              0 ****  ****    0 ROOT


##########                                Name:    ZINC001342153661
##########                DOCK_Rotatable_Bonds:                   8
##########                         Heavy_Atoms:                  29
##########                    Molecular_Weight:             395.548
##########                DOCK_Rotatable_Bonds:                   8
##########                       Formal_Charge:          -0.0400005
##########                     HBond_Acceptors:                   6
##########                        HBond_Donors:                   1
##########                         Heavy_Atoms:                  29
##########                          Grid_Score:          -29.811285
##########                     Grid_vdw_energy:          -30.608831
##########                      Grid_es_energy:            0.797546
##########           Internal_energy_repulsive:           16.250540

@<TRIPOS>MOLECULE
ZINC001342153661
 62 65 1 0 0
SMALL
USER_CHARGES


@<TRIPOS>ATOM
      1 C1         -7.9792    0.6351   53.2893 C.2     1  ZINC001342153661   -0.1400
      2 C2         -8.9026    1.5328   53.0495 C.2     1  ZINC001342153661   -0.1600
      3 C3        -10.3594    1.1649   53.1657 C.3     1  ZINC001342153661   -0.1200
      4 C4         -8.5081    2.9333   52.6571 C.3     1  ZINC001342153661    0.1500
      5 N5         -7.4144    3.3917   53.5171 N.pl3   1  ZINC001342153661   -0.4700
      6 C6         -6.1628    3.7788   53.1252 C.2     1  ZINC001342153661    0.1800
      7 C7         -5.6408    3.8153   51.7120 C.3     1  ZINC001342153661   -0.0600
      8 C8         -5.0036    2.4674   51.3685 C.3     1  ZINC001342153661    0.1600
      9 H9         -5.2135    1.7530   52.1646 H       1  ZINC001342153661    0.1000
     10 O10        -5.5471    1.9832   50.1387 O.3     1  ZINC001342153661   -0.5400
     11 C11        -3.5131    2.6379   51.2265 C.ar    1  ZINC001342153661   -0.1700
     12 C12        -2.8931    2.4063   50.0085 C.ar    1  ZINC001342153661   -0.0600
     13 C13        -1.5194    2.5762   49.9242 C.ar    1  ZINC001342153661   -0.1700
     14 C14        -0.8191    2.9678   51.0493 C.ar    1  ZINC001342153661    0.1000
     15 N15        -1.4424    3.1794   52.1922 N.ar    1  ZINC001342153661   -0.4800
     16 C16        -2.7476    3.0328   52.3075 C.ar    1  ZINC001342153661    0.1100
     17 N17        -5.5055    4.1108   54.2000 N.2     1  ZINC001342153661   -0.2700
     18 N18        -6.2508    3.9611   55.2364 N.2     1  ZINC001342153661   -0.3200
     19 C19        -7.4350    3.5266   54.8748 C.2     1  ZINC001342153661    0.3600
     20 N20        -8.5023    3.2490   55.7139 N.3     1  ZINC001342153661   -0.4500
     21 C21        -9.3278    4.4444   55.9286 C.3     1  ZINC001342153661    0.0500
     22 C22       -10.5714    4.0687   56.7374 C.3     1  ZINC001342153661   -0.1200
     23 C23       -10.1401    3.4753   58.0815 C.3     1  ZINC001342153661   -0.1200
     24 C24        -9.2422    2.2609   57.8297 C.3     1  ZINC001342153661   -0.0800
     25 H25        -9.8057    1.4963   57.2949 H       1  ZINC001342153661    0.0800
     26 C26        -8.7587    1.6971   59.1674 C.3     1  ZINC001342153661   -0.0800
     27 C27        -9.9631    1.2716   60.0434 C.3     1  ZINC001342153661   -0.1200
     28 C28        -9.3380    0.2251   60.9991 C.3     1  ZINC001342153661   -0.1300
     29 C29        -8.3378   -0.5462   60.1132 C.3     1  ZINC001342153661   -0.1300
     30 C30        -7.9695    0.3898   58.9486 C.3     1  ZINC001342153661   -0.1200
     31 C31        -8.0371    2.6890   56.9892 C.3     1  ZINC001342153661    0.0800
     32 H32        -8.2618   -0.3686   53.5705 H       1  ZINC001342153661    0.1000
     33 H33        -6.9352    0.8976   53.2017 H       1  ZINC001342153661    0.1100
     34 H34       -10.6793    1.2709   54.2022 H       1  ZINC001342153661    0.0700
     35 H35       -10.9525    1.8251   52.5330 H       1  ZINC001342153661    0.0600
     36 H36       -10.5001    0.1323   52.8459 H       1  ZINC001342153661    0.0700
     37 H37        -8.1805    2.9407   51.6175 H       1  ZINC001342153661    0.1000
     38 H38        -9.3643    3.5979   52.7729 H       1  ZINC001342153661    0.1000
     39 H39        -6.4642    4.0134   51.0256 H       1  ZINC001342153661    0.1100
     40 H40        -4.8941    4.6041   51.6206 H       1  ZINC001342153661    0.1000
     41 H41        -6.4764    1.7221   50.1952 H       1  ZINC001342153661    0.3800
     42 H42        -3.4662    2.1005   49.1456 H       1  ZINC001342153661    0.1300
     43 H43        -1.0033    2.4041   48.9913 H       1  ZINC001342153661    0.1400
     44 H44         0.2510    3.1020   50.9920 H       1  ZINC001342153661    0.1600
     45 H45        -3.2231    3.2151   53.2601 H       1  ZINC001342153661    0.1500
     46 H46        -8.7510    5.1908   56.4750 H       1  ZINC001342153661    0.0500
     47 H47        -9.6312    4.8540   54.9651 H       1  ZINC001342153661    0.0700
     48 H48       -11.1760    4.9591   56.9099 H       1  ZINC001342153661    0.0800
     49 H49       -11.1558    3.3325   56.1854 H       1  ZINC001342153661    0.0700
     50 H50        -9.5889    4.2242   58.6502 H       1  ZINC001342153661    0.0600
     51 H51       -11.0218    3.1663   58.6429 H       1  ZINC001342153661    0.0700
     52 H52        -8.1446    2.4305   59.6898 H       1  ZINC001342153661    0.0800
     53 H53       -10.3529    2.1218   60.6034 H       1  ZINC001342153661    0.0700
     54 H54       -10.7443    0.8190   59.4327 H       1  ZINC001342153661    0.0700
     55 H55        -8.8182    0.7201   61.8194 H       1  ZINC001342153661    0.0600
     56 H56       -10.1051   -0.4474   61.3827 H       1  ZINC001342153661    0.0600
     57 H57        -7.4459   -0.7961   60.6877 H       1  ZINC001342153661    0.0600
     58 H58        -8.8022   -1.4546   59.7297 H       1  ZINC001342153661    0.0600
     59 H59        -8.2552   -0.0646   57.9999 H       1  ZINC001342153661    0.0600
     60 H60        -6.8989    0.5939   58.9580 H       1  ZINC001342153661    0.0600
     61 H61        -7.4031    1.8237   56.7962 H       1  ZINC001342153661    0.0900
     62 H62        -7.4664    3.4436   57.5306 H       1  ZINC001342153661    0.0500
@<TRIPOS>BOND
     1     1     2    2
     2     1    32    1
     3     1    33    1
     4     2     3    1
     5     2     4    1
     6     3    34    1
     7     3    35    1
     8     3    36    1
     9     4     5    1
    10     4    37    1
    11     4    38    1
    12     5    19    1
    13     5     6    1
    14     6     7    1
    15     6    17    2
    16     7     8    1
    17     7    39    1
    18     7    40    1
    19     8     9    1
    20     8    10    1
    21     8    11    1
    22    10    41    1
    23    11    16   ar
    24    11    12   ar
    25    12    13   ar
    26    12    42    1
    27    13    14   ar
    28    13    43    1
    29    14    15   ar
    30    14    44    1
    31    15    16   ar
    32    16    45    1
    33    17    18    1
    34    18    19    2
    35    19    20    1
    36    20    31    1
    37    20    21    1
    38    21    22    1
    39    21    46    1
    40    21    47    1
    41    22    23    1
    42    22    48    1
    43    22    49    1
    44    23    24    1
    45    23    50    1
    46    23    51    1
    47    24    25    1
    48    24    26    1
    49    24    31    1
    50    26    30    1
    51    26    27    1
    52    26    52    1
    53    27    28    1
    54    27    53    1
    55    27    54    1
    56    28    29    1
    57    28    55    1
    58    28    56    1
    59    29    30    1
    60    29    57    1
    61    29    58    1
    62    30    59    1
    63    30    60    1
    64    31    61    1
    65    31    62    1
@<TRIPOS>SUBSTRUCTURE
     1 ZINC001342153661        1 TEMP              0 ****  ****    0 ROOT


##########                                Name:    ZINC001023148918
##########                DOCK_Rotatable_Bonds:                   6
##########                         Heavy_Atoms:                  25
##########                    Molecular_Weight:             348.402
##########                DOCK_Rotatable_Bonds:                   6
##########                       Formal_Charge:           0.0199999
##########                     HBond_Acceptors:                   8
##########                        HBond_Donors:                   2
##########                         Heavy_Atoms:                  25
##########                          Grid_Score:          -29.798624
##########                     Grid_vdw_energy:          -28.398378
##########                      Grid_es_energy:           -1.400246
##########           Internal_energy_repulsive:           14.447882

@<TRIPOS>MOLECULE
ZINC001023148918
 49 52 1 0 0
SMALL
USER_CHARGES


@<TRIPOS>ATOM
      1 C1        -13.1877    0.0942   53.9091 C.3     1  ZINC001023148918   -0.0700
      2 C2        -11.8732    0.6479   53.4228 C.2     1  ZINC001023148918    0.0200
      3 N3        -11.6679    1.8574   52.9673 N.2     1  ZINC001023148918   -0.2700
      4 N4        -10.4384    2.0192   52.6328 N.pl3   1  ZINC001023148918   -0.2500
      5 C5         -9.8674    3.2526   52.0861 C.3     1  ZINC001023148918    0.0800
      6 C6         -9.7444    0.8657   52.8648 C.2     1  ZINC001023148918   -0.0400
      7 C7         -8.3125    0.6317   52.6187 C.2     1  ZINC001023148918    0.6000
      8 O8         -7.8772   -0.5039   52.5947 O.2     1  ZINC001023148918   -0.5300
      9 N9         -7.4835    1.6755   52.4197 N.am    1  ZINC001023148918   -0.7000
     10 C10        -6.0581    1.4424   52.1748 C.3     1  ZINC001023148918    0.1500
     11 H11        -5.6980    0.5927   52.7545 H       1  ZINC001023148918    0.1200
     12 C12        -5.2272    2.7141   52.4787 C.3     1  ZINC001023148918    0.1000
     13 N13        -4.0121    2.5767   51.6552 N.am    1  ZINC001023148918   -0.6200
     14 C14        -2.8242    3.1628   51.9041 C.2     1  ZINC001023148918    0.5400
     15 O15        -1.8879    2.9774   51.1559 O.2     1  ZINC001023148918   -0.5200
     16 C16        -2.6595    4.0485   53.1121 C.3     1  ZINC001023148918   -0.1400
     17 H17        -3.2021    3.6408   53.9651 H       1  ZINC001023148918    0.1100
     18 C18        -3.1291    5.4928   52.8023 C.3     1  ZINC001023148918   -0.1400
     19 C19        -1.8300    6.3289   53.0057 C.3     1  ZINC001023148918    0.0600
     20 H20        -1.8110    7.2937   52.4985 H       1  ZINC001023148918    0.1300
     21 C21        -1.6102    6.3801   54.5474 C.3     1  ZINC001023148918   -0.1500
     22 C22        -1.1452    4.9384   54.8757 C.3     1  ZINC001023148918   -0.1500
     23 C23        -1.1516    4.2378   53.4564 C.3     1  ZINC001023148918    0.0900
     24 H24        -0.5225    3.3519   53.3698 H       1  ZINC001023148918    0.1400
     25 O25        -0.8045    5.3703   52.5854 O.3     1  ZINC001023148918   -0.3600
     26 C26        -4.3105    1.6939   50.5181 C.3     1  ZINC001023148918    0.0700
     27 C27        -5.7794    1.2415   50.6617 C.3     1  ZINC001023148918    0.0900
     28 H28        -6.4371    1.8709   50.0622 H       1  ZINC001023148918    0.0800
     29 O29        -5.9238   -0.1318   50.2941 O.3     1  ZINC001023148918   -0.5500
     30 C30       -10.6564   -0.0368   53.3838 C.2     1  ZINC001023148918   -0.1800
     31 H31       -13.2905    0.2872   54.9769 H       1  ZINC001023148918    0.0800
     32 H32       -14.0055    0.5754   53.3725 H       1  ZINC001023148918    0.0700
     33 H33       -13.2180   -0.9805   53.7295 H       1  ZINC001023148918    0.0800
     34 H34        -9.5727    3.9102   52.9039 H       1  ZINC001023148918    0.0900
     35 H35        -8.9935    3.0113   51.4810 H       1  ZINC001023148918    0.1100
     36 H36       -10.6111    3.7539   51.4667 H       1  ZINC001023148918    0.0900
     37 H37        -7.8307    2.5810   52.4388 H       1  ZINC001023148918    0.4100
     38 H38        -5.7816    3.6073   52.1908 H       1  ZINC001023148918    0.0800
     39 H39        -4.9664    2.7530   53.5364 H       1  ZINC001023148918    0.0900
     40 H40        -3.4821    5.5719   51.7741 H       1  ZINC001023148918    0.0800
     41 H41        -3.9034    5.8058   53.5027 H       1  ZINC001023148918    0.0900
     42 H42        -0.8359    7.1033   54.8032 H       1  ZINC001023148918    0.0800
     43 H43        -2.5422    6.6121   55.0628 H       1  ZINC001023148918    0.0800
     44 H44        -0.1392    4.9432   55.2952 H       1  ZINC001023148918    0.0800
     45 H45        -1.8456    4.4520   55.5547 H       1  ZINC001023148918    0.0800
     46 H46        -4.1794    2.2375   49.5824 H       1  ZINC001023148918    0.0800
     47 H47        -3.6521    0.8256   50.5402 H       1  ZINC001023148918    0.0900
     48 H48        -6.8318   -0.4599   50.3476 H       1  ZINC001023148918    0.3900
     49 H49       -10.4686   -1.0559   53.6879 H       1  ZINC001023148918    0.1600
@<TRIPOS>BOND
     1     1     2    1
     2     1    31    1
     3     1    32    1
     4     1    33    1
     5     2    30    1
     6     2     3    2
     7     3     4    1
     8     4     5    1
     9     4     6    1
    10     5    34    1
    11     5    35    1
    12     5    36    1
    13     6     7    1
    14     6    30    2
    15     7     8    2
    16     7     9   am
    17     9    10    1
    18     9    37    1
    19    10    11    1
    20    10    27    1
    21    10    12    1
    22    12    13    1
    23    12    38    1
    24    12    39    1
    25    13    14   am
    26    13    26    1
    27    14    15    2
    28    14    16    1
    29    16    17    1
    30    16    23    1
    31    16    18    1
    32    18    19    1
    33    18    40    1
    34    18    41    1
    35    19    20    1
    36    19    25    1
    37    19    21    1
    38    21    22    1
    39    21    42    1
    40    21    43    1
    41    22    23    1
    42    22    44    1
    43    22    45    1
    44    23    24    1
    45    23    25    1
    46    26    27    1
    47    26    46    1
    48    26    47    1
    49    27    28    1
    50    27    29    1
    51    29    48    1
    52    30    49    1
@<TRIPOS>SUBSTRUCTURE
     1 ZINC001023148918        1 TEMP              0 ****  ****    0 ROOT


##########                                Name:    ZINC000291036115
##########                DOCK_Rotatable_Bonds:                   5
##########                         Heavy_Atoms:                  22
##########                    Molecular_Weight:             366.193
##########                DOCK_Rotatable_Bonds:                   5
##########                       Formal_Charge:                0.01
##########                     HBond_Acceptors:                   7
##########                        HBond_Donors:                   0
##########                         Heavy_Atoms:                  22
##########                          Grid_Score:          -29.797527
##########                     Grid_vdw_energy:          -28.999765
##########                      Grid_es_energy:           -0.797762
##########           Internal_energy_repulsive:            4.605584

@<TRIPOS>MOLECULE
ZINC000291036115
 35 37 1 0 0
SMALL
USER_CHARGES


@<TRIPOS>ATOM
      1 C1         -6.3068    4.7197   51.0470 C.3     1  <0>        -0.1500
      2 C2         -5.9438    3.2569   51.3108 C.3     1  <0>        -0.0400
      3 H3         -6.4612    2.6193   50.5940 H       1  <0>         0.0900
      4 C4         -6.3658    2.8749   52.7309 C.3     1  <0>        -0.0200
      5 C5         -7.1778    1.6060   52.6894 C.2     1  <0>         0.1900
      6 N6         -8.4796    1.5076   52.8126 N.2     1  <0>        -0.4500
      7 C7         -8.7545    0.1949   52.7120 C.2     1  <0>         0.1500
      8 C8        -10.1197   -0.4389   52.7886 C.3     1  <0>         0.2300
      9 N9        -10.3626   -0.9118   54.1537 N.pl3   1  <0>        -0.3900
     10 C10       -10.9380   -0.2229   55.1546 C.2     1  <0>         0.2600
     11 N11       -10.9715   -0.9937   56.2112 N.2     1  <0>        -0.5400
     12 C12       -10.4292   -2.1766   55.9250 C.2     1  <0>         0.2000
     13 N13       -10.0462   -2.1768   54.6752 N.2     1  <0>        -0.3100
     14 N14        -7.6270   -0.4265   52.5360 N.2     1  <0>        -0.3600
     15 O15        -6.7094    0.3667   52.5142 O.3     1  <0>         0.0900
     16 C16        -4.4552    3.0743   51.1628 C.ar    1  <0>        -0.0900
     17 C17        -3.9571    2.2167   50.2001 C.ar    1  <0>        -0.0700
     18 C18        -2.5920    2.0484   50.0627 C.ar    1  <0>        -0.1400
     19 C19        -1.7232    2.7391   50.8897 C.ar    1  <0>         0.1300
     20 F20        -0.3888    2.5756   50.7559 F       1  <0>        -0.1200
     21 C21        -2.2232    3.5987   51.8546 C.ar    1  <0>        -0.1300
     22 Br22       -1.0383    4.5438   52.9853 Br      1  <0>        -0.0200
     23 C23        -3.5889    3.7692   51.9864 C.ar    1  <0>        -0.0500
     24 H24        -7.3835    4.8518   51.1540 H       1  <0>         0.0600
     25 H25        -5.7895    5.3574   51.7637 H       1  <0>         0.0700
     26 H26        -6.0062    4.9919   50.0353 H       1  <0>         0.0700
     27 H27        -5.4782    2.7183   53.3440 H       1  <0>         0.1200
     28 H28        -6.9667    3.6769   53.1596 H       1  <0>         0.1100
     29 H29       -10.8774    0.2966   52.5186 H       1  <0>         0.1300
     30 H30       -10.1685   -1.2810   52.0983 H       1  <0>         0.1200
     31 H31       -11.3074    0.7904   55.0967 H       1  <0>         0.2200
     32 H32       -10.3268   -3.0029   56.6128 H       1  <0>         0.2200
     33 H33        -4.6349    1.6774   49.5549 H       1  <0>         0.1400
     34 H34        -2.2033    1.3780   49.3105 H       1  <0>         0.1500
     35 H35        -3.9793    4.4389   52.7383 H       1  <0>         0.1400
@<TRIPOS>BOND
     1     1     2    1
     2     1    24    1
     3     1    25    1
     4     1    26    1
     5     2     3    1
     6     2     4    1
     7     2    16    1
     8     4     5    1
     9     4    27    1
    10     4    28    1
    11     5    15    1
    12     5     6    2
    13     6     7    1
    14     7     8    1
    15     7    14    2
    16     8     9    1
    17     8    29    1
    18     8    30    1
    19     9    13    1
    20     9    10    1
    21    10    11    2
    22    10    31    1
    23    11    12    1
    24    12    13    2
    25    12    32    1
    26    14    15    1
    27    16    23   ar
    28    16    17   ar
    29    17    18   ar
    30    17    33    1
    31    18    19   ar
    32    18    34    1
    33    19    20    1
    34    19    21   ar
    35    21    22    1
    36    21    23   ar
    37    23    35    1
@<TRIPOS>SUBSTRUCTURE
     1 <0>         1 TEMP              0 ****  ****    0 ROOT


##########                                Name:    ZINC000523153175
##########                DOCK_Rotatable_Bonds:                   9
##########                         Heavy_Atoms:                  30
##########                    Molecular_Weight:             413.603
##########                DOCK_Rotatable_Bonds:                   9
##########                       Formal_Charge:           0.0499987
##########                     HBond_Acceptors:                   5
##########                        HBond_Donors:                   1
##########                         Heavy_Atoms:                  30
##########                          Grid_Score:          -29.794371
##########                     Grid_vdw_energy:          -26.537956
##########                      Grid_es_energy:           -3.256415
##########           Internal_energy_repulsive:           30.800505

@<TRIPOS>MOLECULE
ZINC000523153175
 69 71 1 0 0
SMALL
USER_CHARGES


@<TRIPOS>ATOM
      1 C1        -14.6193    1.8290   45.7607 C.3     1  ZINC000523153175   -0.1500
      2 C2        -15.2164    2.9924   46.5551 C.3     1  ZINC000523153175   -0.0600
      3 C3        -16.5922    2.5912   47.0909 C.3     1  ZINC000523153175   -0.1400
      4 C4        -14.3077    3.3319   47.7084 C.ar    1  ZINC000523153175   -0.0800
      5 C5        -14.0883    4.6533   48.0497 C.ar    1  ZINC000523153175   -0.1100
      6 C6        -13.2548    4.9647   49.1077 C.ar    1  ZINC000523153175   -0.1100
      7 C7        -12.6408    3.9546   49.8244 C.ar    1  ZINC000523153175   -0.0800
      8 C8        -11.7316    4.2942   50.9773 C.3     1  ZINC000523153175   -0.0300
      9 H9        -11.7540    5.3697   51.1531 H       1  ZINC000523153175    0.0800
     10 C10       -12.2066    3.5620   52.2340 C.3     1  ZINC000523153175   -0.1500
     11 C11       -10.3024    3.8613   50.6443 C.3     1  ZINC000523153175   -0.1300
     12 C12        -9.3291    4.6719   51.4606 C.2     1  ZINC000523153175    0.5200
     13 O13        -9.7374    5.4272   52.3172 O.2     1  ZINC000523153175   -0.5300
     14 N14        -8.0045    4.5576   51.2389 N.am    1  ZINC000523153175   -0.6200
     15 C15        -7.0371    5.3335   52.0297 C.3     1  ZINC000523153175    0.1100
     16 C16        -5.9780    4.3734   52.5815 C.3     1  ZINC000523153175    0.0400
     17 N17        -5.3981    3.6006   51.4750 N.3     1  ZINC000523153175   -0.5100
     18 C18        -4.2608    2.7931   51.9360 C.3     1  ZINC000523153175    0.0600
     19 H19        -4.6295    1.8817   52.4067 H       1  ZINC000523153175    0.1100
     20 C20        -3.3766    2.4286   50.7418 C.3     1  ZINC000523153175   -0.1800
     21 C21        -3.4554    3.5839   52.9347 C.2     1  ZINC000523153175    0.5200
     22 O22        -2.7889    4.5272   52.5653 O.2     1  ZINC000523153175   -0.5200
     23 N23        -3.4760    3.2425   54.2384 N.am    1  ZINC000523153175   -0.7200
     24 C24        -2.6945    4.0123   55.2094 C.3     1  ZINC000523153175    0.1400
     25 C25        -3.3335    3.9012   56.6091 C.3     1  ZINC000523153175   -0.1300
     26 C26        -2.5501    2.7543   57.2945 C.3     1  ZINC000523153175   -0.1300
     27 C27        -1.1024    2.9818   56.7929 C.3     1  ZINC000523153175   -0.1300
     28 C28        -1.2758    3.4277   55.3263 C.3     1  ZINC000523153175   -0.1300
     29 C29        -6.4113    2.7596   50.8239 C.3     1  ZINC000523153175    0.0400
     30 C30        -7.4879    3.6490   50.2042 C.3     1  ZINC000523153175    0.1200
     31 C31       -12.8612    2.6332   49.4838 C.ar    1  ZINC000523153175   -0.1100
     32 C32       -13.6978    2.3217   48.4284 C.ar    1  ZINC000523153175   -0.1200
     33 H33       -15.2766    1.5835   44.9266 H       1  ZINC000523153175    0.0600
     34 H34       -13.6392    2.1149   45.3791 H       1  ZINC000523153175    0.0600
     35 H35       -14.5169    0.9600   46.4106 H       1  ZINC000523153175    0.0600
     36 H36       -15.3188    3.8615   45.9052 H       1  ZINC000523153175    0.0800
     37 H37       -16.4898    1.7222   47.7408 H       1  ZINC000523153175    0.0600
     38 H38       -17.0175    3.4200   47.6569 H       1  ZINC000523153175    0.0600
     39 H39       -17.2495    2.3457   46.2568 H       1  ZINC000523153175    0.0600
     40 H40       -14.5681    5.4426   47.4898 H       1  ZINC000523153175    0.1200
     41 H41       -13.0829    5.9973   49.3739 H       1  ZINC000523153175    0.1200
     42 H42       -11.5489    3.8076   53.0679 H       1  ZINC000523153175    0.0800
     43 H43       -13.2248    3.8703   52.4712 H       1  ZINC000523153175    0.0600
     44 H44       -12.1842    2.4865   52.0581 H       1  ZINC000523153175    0.0500
     45 H45       -10.1795    2.8036   50.8773 H       1  ZINC000523153175    0.0900
     46 H46       -10.1112    4.0244   49.5837 H       1  ZINC000523153175    0.0900
     47 H47        -6.5596    6.0795   51.3943 H       1  ZINC000523153175    0.0800
     48 H48        -7.5505    5.8262   52.8554 H       1  ZINC000523153175    0.0900
     49 H49        -5.1927    4.9440   53.0774 H       1  ZINC000523153175    0.0900
     50 H50        -6.4407    3.6934   53.2967 H       1  ZINC000523153175    0.0400
     51 H51        -3.0079    3.3401   50.2711 H       1  ZINC000523153175    0.0700
     52 H52        -2.5328    1.8295   51.0840 H       1  ZINC000523153175    0.0700
     53 H53        -3.9592    1.8567   50.0195 H       1  ZINC000523153175    0.0700
     54 H54        -4.0082    2.4873   54.5336 H       1  ZINC000523153175    0.4000
     55 H55        -2.6436    5.0572   54.9032 H       1  ZINC000523153175    0.0900
     56 H56        -3.2072    4.8326   57.1611 H       1  ZINC000523153175    0.0700
     57 H57        -4.3900    3.6457   56.5269 H       1  ZINC000523153175    0.0700
     58 H58        -2.6018    2.8456   58.3794 H       1  ZINC000523153175    0.0700
     59 H59        -2.9235    1.7832   56.9692 H       1  ZINC000523153175    0.0700
     60 H60        -0.6158    3.7646   57.3746 H       1  ZINC000523153175    0.0700
     61 H61        -0.5306    2.0552   56.8448 H       1  ZINC000523153175    0.0700
     62 H62        -1.1689    2.5712   54.6605 H       1  ZINC000523153175    0.0700
     63 H63        -0.5366    4.1891   55.0776 H       1  ZINC000523153175    0.0800
     64 H64        -5.9404    2.1598   50.0450 H       1  ZINC000523153175    0.1000
     65 H65        -6.8681    2.1020   51.5636 H       1  ZINC000523153175    0.0400
     66 H66        -8.2987    3.0295   49.8207 H       1  ZINC000523153175    0.1000
     67 H67        -7.0563    4.2352   49.3929 H       1  ZINC000523153175    0.0800
     68 H68       -12.3818    1.8440   50.0440 H       1  ZINC000523153175    0.1200
     69 H69       -13.8700    1.2892   48.1623 H       1  ZINC000523153175    0.1200
@<TRIPOS>BOND
     1     1     2    1
     2     1    33    1
     3     1    34    1
     4     1    35    1
     5     2     3    1
     6     2     4    1
     7     2    36    1
     8     3    37    1
     9     3    38    1
    10     3    39    1
    11     4    32   ar
    12     4     5   ar
    13     5     6   ar
    14     5    40    1
    15     6     7   ar
    16     6    41    1
    17     7     8    1
    18     7    31   ar
    19     8     9    1
    20     8    10    1
    21     8    11    1
    22    10    42    1
    23    10    43    1
    24    10    44    1
    25    11    12    1
    26    11    45    1
    27    11    46    1
    28    12    13    2
    29    12    14   am
    30    14    30    1
    31    14    15    1
    32    15    16    1
    33    15    47    1
    34    15    48    1
    35    16    17    1
    36    16    49    1
    37    16    50    1
    38    17    18    1
    39    17    29    1
    40    18    19    1
    41    18    20    1
    42    18    21    1
    43    20    51    1
    44    20    52    1
    45    20    53    1
    46    21    22    2
    47    21    23   am
    48    23    24    1
    49    23    54    1
    50    24    28    1
    51    24    25    1
    52    24    55    1
    53    25    26    1
    54    25    56    1
    55    25    57    1
    56    26    27    1
    57    26    58    1
    58    26    59    1
    59    27    28    1
    60    27    60    1
    61    27    61    1
    62    28    62    1
    63    28    63    1
    64    29    30    1
    65    29    64    1
    66    29    65    1
    67    30    66    1
    68    30    67    1
    69    31    32   ar
    70    31    68    1
    71    32    69    1
@<TRIPOS>SUBSTRUCTURE
     1 ZINC000523153175        1 TEMP              0 ****  ****    0 ROOT


##########                                Name:    ZINC000437192871
##########                DOCK_Rotatable_Bonds:                   9
##########                         Heavy_Atoms:                  28
##########                    Molecular_Weight:             423.298
##########                DOCK_Rotatable_Bonds:                   9
##########                       Formal_Charge:         -8.9407e-08
##########                     HBond_Acceptors:                   9
##########                        HBond_Donors:                   1
##########                         Heavy_Atoms:                  28
##########                          Grid_Score:          -29.793602
##########                     Grid_vdw_energy:          -29.525810
##########                      Grid_es_energy:           -0.267791
##########           Internal_energy_repulsive:           13.808414

@<TRIPOS>MOLECULE
ZINC000437192871
 48 50 1 0 0
SMALL
USER_CHARGES


@<TRIPOS>ATOM
      1 C1         -5.8610    2.2564   50.6032 C.3     1  ZINC000437192871   -0.1700
      2 C2         -5.9650    0.9941   51.4617 C.3     1  ZINC000437192871    0.1300
      3 N3         -6.9176    1.2217   52.5513 N.pl3   1  ZINC000437192871   -0.3600
      4 C4         -7.7445    0.3004   53.0883 C.2     1  ZINC000437192871    0.0700
      5 C5         -8.4589    0.9065   54.0646 C.2     1  ZINC000437192871   -0.2700
      6 C6         -9.5046    0.2552   54.9325 C.3     1  ZINC000437192871    0.1900
      7 N7        -10.3274    1.2893   55.5650 N.am    1  ZINC000437192871   -0.6000
      8 C8        -11.2128    2.1225   54.7477 C.3     1  ZINC000437192871    0.1100
      9 C9        -12.6512    1.6170   54.8766 C.3     1  ZINC000437192871    0.0600
     10 O10       -12.7205    0.2596   54.4356 O.3     1  ZINC000437192871   -0.5600
     11 C11       -10.2697    1.4740   56.8988 C.2     1  ZINC000437192871    0.6000
     12 O12       -10.9526    2.3326   57.4239 O.2     1  ZINC000437192871   -0.5000
     13 C13        -9.3796    0.6364   57.7204 C.2     1  ZINC000437192871   -0.2200
     14 C14        -8.0865    0.8843   58.1061 C.2     1  ZINC000437192871    0.0100
     15 C15        -7.2628    2.1002   57.7679 C.3     1  ZINC000437192871   -0.0800
     16 O16        -7.7009   -0.1621   58.8399 O.3     1  ZINC000437192871    0.1100
     17 N17        -8.5563   -1.0044   58.9598 N.2     1  ZINC000437192871   -0.3200
     18 C18        -9.6609   -0.6763   58.3389 C.2     1  ZINC000437192871    0.0800
     19 C19       -10.9193   -1.4569   58.2645 C.ar    1  ZINC000437192871   -0.0200
     20 C20       -11.1047   -2.3891   57.2452 C.ar    1  ZINC000437192871   -0.0700
     21 C21       -12.2773   -3.1135   57.1805 C.ar    1  ZINC000437192871   -0.1000
     22 C22       -13.2695   -2.9161   58.1259 C.ar    1  ZINC000437192871   -0.0100
     23 Cl23      -14.7420   -3.8316   58.0384 Cl      1  ZINC000437192871   -0.0500
     24 C24       -13.0915   -1.9917   59.1409 C.ar    1  ZINC000437192871   -0.1100
     25 C25       -11.9197   -1.2652   59.2181 C.ar    1  ZINC000437192871    0.0000
     26 Cl26      -11.6968   -0.1065   60.4914 Cl      1  ZINC000437192871   -0.0300
     27 C27        -8.0548    2.2441   54.1263 C.2     1  ZINC000437192871    0.0600
     28 N28        -7.1265    2.4327   53.2237 N.2     1  ZINC000437192871   -0.2900
     29 H29        -5.1523    2.0870   49.7926 H       1  ZINC000437192871    0.0800
     30 H30        -6.8397    2.4941   50.1865 H       1  ZINC000437192871    0.0600
     31 H31        -5.5168    3.0872   51.2192 H       1  ZINC000437192871    0.0700
     32 H32        -6.3092    0.1632   50.8458 H       1  ZINC000437192871    0.1000
     33 H33        -4.9863    0.7564   51.8784 H       1  ZINC000437192871    0.0900
     34 H34        -7.8224   -0.7352   52.7917 H       1  ZINC000437192871    0.1600
     35 H35       -10.1367   -0.3875   54.3196 H       1  ZINC000437192871    0.0900
     36 H36        -9.0169   -0.3425   55.7025 H       1  ZINC000437192871    0.0800
     37 H37       -11.1587    3.1557   55.0910 H       1  ZINC000437192871    0.1000
     38 H38       -10.9012    2.0694   53.7046 H       1  ZINC000437192871    0.1000
     39 H39       -12.9654    1.6770   55.9187 H       1  ZINC000437192871    0.0600
     40 H40       -13.3090    2.2325   54.2629 H       1  ZINC000437192871    0.0500
     41 H41       -12.4448    0.1296   53.5180 H       1  ZINC000437192871    0.3800
     42 H42        -7.3351    2.8250   58.5789 H       1  ZINC000437192871    0.1000
     43 H43        -6.2214    1.8077   57.6337 H       1  ZINC000437192871    0.0900
     44 H44        -7.6363    2.5474   56.8467 H       1  ZINC000437192871    0.0900
     45 H45       -10.3319   -2.5440   56.5068 H       1  ZINC000437192871    0.1600
     46 H46       -12.4217   -3.8357   56.3906 H       1  ZINC000437192871    0.1500
     47 H47       -13.8684   -1.8415   59.8758 H       1  ZINC000437192871    0.1500
     48 H48        -8.4389    2.9910   54.8052 H       1  ZINC000437192871    0.1800
@<TRIPOS>BOND
     1     1     2    1
     2     1    29    1
     3     1    30    1
     4     1    31    1
     5     2     3    1
     6     2    32    1
     7     2    33    1
     8     3    28    1
     9     3     4    1
    10     4     5    2
    11     4    34    1
    12     5     6    1
    13     5    27    1
    14     6     7    1
    15     6    35    1
    16     6    36    1
    17     7     8    1
    18     7    11   am
    19     8     9    1
    20     8    37    1
    21     8    38    1
    22     9    10    1
    23     9    39    1
    24     9    40    1
    25    10    41    1
    26    11    12    2
    27    11    13    1
    28    13    18    1
    29    13    14    2
    30    14    15    1
    31    14    16    1
    32    15    42    1
    33    15    43    1
    34    15    44    1
    35    16    17    1
    36    17    18    2
    37    18    19    1
    38    19    25   ar
    39    19    20   ar
    40    20    21   ar
    41    20    45    1
    42    21    22   ar
    43    21    46    1
    44    22    23    1
    45    22    24   ar
    46    24    25   ar
    47    24    47    1
    48    25    26    1
    49    27    28    2
    50    27    48    1
@<TRIPOS>SUBSTRUCTURE
     1 ZINC000437192871        1 TEMP              0 ****  ****    0 ROOT


##########                                Name:    ZINC000450219577
##########                DOCK_Rotatable_Bonds:                   8
##########                         Heavy_Atoms:                  26
##########                    Molecular_Weight:             353.421
##########                DOCK_Rotatable_Bonds:                   8
##########                       Formal_Charge:          -0.0199997
##########                     HBond_Acceptors:                   6
##########                        HBond_Donors:                   1
##########                         Heavy_Atoms:                  26
##########                          Grid_Score:          -29.788164
##########                     Grid_vdw_energy:          -29.701370
##########                      Grid_es_energy:           -0.086794
##########           Internal_energy_repulsive:           36.770172

@<TRIPOS>MOLECULE
ZINC000450219577
 49 51 1 0 0
SMALL
USER_CHARGES


@<TRIPOS>ATOM
      1 C1        -12.8168    2.5889   52.4747 C.3     1  ZINC000450219577   -0.1800
      2 C2        -13.0865    1.1252   52.1197 C.3     1  ZINC000450219577    0.1200
      3 C3        -14.2372    0.5959   52.9779 C.3     1  ZINC000450219577   -0.1800
      4 C4        -13.4633    1.0204   50.6405 C.3     1  ZINC000450219577   -0.1400
      5 O5        -11.8928    0.3382   52.3720 O.3     1  ZINC000450219577   -0.3400
      6 C6        -11.3992    0.3626   53.6200 C.2     1  ZINC000450219577    0.4700
      7 O7        -11.9876    0.9589   54.4908 O.2     1  ZINC000450219577   -0.5000
      8 C8        -10.1113   -0.3536   53.9351 C.3     1  ZINC000450219577    0.2000
      9 H9        -10.0668   -1.2858   53.3720 H       1  ZINC000450219577    0.1400
     10 N10        -8.9768    0.4957   53.5640 N.am    1  ZINC000450219577   -0.7100
     11 C11        -7.9786   -0.0049   52.8094 C.2     1  ZINC000450219577    0.5800
     12 O12        -8.0204   -1.1608   52.4355 O.2     1  ZINC000450219577   -0.5200
     13 C13        -6.8329    0.8515   52.4364 C.ar    1  ZINC000450219577   -0.2500
     14 C14        -6.5536    2.0272   53.1424 C.ar    1  ZINC000450219577    0.1900
     15 N15        -5.5190    2.7627   52.7751 N.ar    1  ZINC000450219577   -0.5100
     16 C16        -4.7564    2.4030   51.7612 C.ar    1  ZINC000450219577    0.3800
     17 C17        -3.5882    3.2758   51.3813 C.3     1  ZINC000450219577   -0.1100
     18 C18        -2.3606    3.2497   52.2942 C.3     1  ZINC000450219577   -0.1500
     19 C19        -2.3064    2.5792   50.9200 C.3     1  ZINC000450219577   -0.1500
     20 N20        -4.9833    1.3035   51.0694 N.ar    1  ZINC000450219577   -0.5200
     21 C21        -5.9934    0.5066   51.3711 C.ar    1  ZINC000450219577    0.2200
     22 C22       -10.0519   -0.6546   55.4106 C.ar    1  ZINC000450219577   -0.1100
     23 C23       -10.5459   -1.8526   55.8921 C.ar    1  ZINC000450219577   -0.1000
     24 C24       -10.4912   -2.1287   57.2454 C.ar    1  ZINC000450219577   -0.1200
     25 C25        -9.9423   -1.2071   58.1173 C.ar    1  ZINC000450219577   -0.1100
     26 C26        -9.4475   -0.0096   57.6357 C.ar    1  ZINC000450219577   -0.1200
     27 C27        -9.4982    0.2648   56.2818 C.ar    1  ZINC000450219577   -0.0800
     28 H28       -12.5484    2.6636   53.5285 H       1  ZINC000450219577    0.0800
     29 H29       -11.9971    2.9659   51.8633 H       1  ZINC000450219577    0.0600
     30 H30       -13.7130    3.1798   52.2853 H       1  ZINC000450219577    0.0700
     31 H31       -15.1334    1.1868   52.7884 H       1  ZINC000450219577    0.0700
     32 H32       -14.4294   -0.4467   52.7249 H       1  ZINC000450219577    0.0600
     33 H33       -13.9688    0.6707   54.0317 H       1  ZINC000450219577    0.0800
     34 H34       -12.6435    1.3975   50.0291 H       1  ZINC000450219577    0.0700
     35 H35       -13.6555   -0.0223   50.3876 H       1  ZINC000450219577    0.0700
     36 H36       -14.3595    1.6113   50.4511 H       1  ZINC000450219577    0.0800
     37 H37        -8.9440    1.4184   53.8613 H       1  ZINC000450219577    0.4100
     38 H38        -7.1737    2.3286   53.9736 H       1  ZINC000450219577    0.1700
     39 H39        -3.8439    4.2239   50.9083 H       1  ZINC000450219577    0.1300
     40 H40        -1.8085    4.1809   52.4219 H       1  ZINC000450219577    0.1000
     41 H41        -2.3980    2.6013   53.1695 H       1  ZINC000450219577    0.1100
     42 H42        -2.3082    1.4896   50.8913 H       1  ZINC000450219577    0.1000
     43 H43        -1.7187    3.0692   50.1437 H       1  ZINC000450219577    0.1100
     44 H44        -6.1729   -0.3922   50.7998 H       1  ZINC000450219577    0.1800
     45 H45       -10.9747   -2.5726   55.2109 H       1  ZINC000450219577    0.1200
     46 H46       -10.8778   -3.0643   57.6216 H       1  ZINC000450219577    0.1200
     47 H47        -9.9003   -1.4226   59.1747 H       1  ZINC000450219577    0.1300
     48 H48        -9.0189    0.7106   58.3169 H       1  ZINC000450219577    0.1300
     49 H49        -9.1116    1.2004   55.9055 H       1  ZINC000450219577    0.1300
@<TRIPOS>BOND
     1     1     2    1
     2     1    28    1
     3     1    29    1
     4     1    30    1
     5     2     3    1
     6     2     4    1
     7     2     5    1
     8     3    31    1
     9     3    32    1
    10     3    33    1
    11     4    34    1
    12     4    35    1
    13     4    36    1
    14     5     6    1
    15     6     7    2
    16     6     8    1
    17     8     9    1
    18     8    10    1
    19     8    22    1
    20    10    11   am
    21    10    37    1
    22    11    12    2
    23    11    13    1
    24    13    21   ar
    25    13    14   ar
    26    14    15   ar
    27    14    38    1
    28    15    16   ar
    29    16    17    1
    30    16    20   ar
    31    17    19    1
    32    17    18    1
    33    17    39    1
    34    18    19    1
    35    18    40    1
    36    18    41    1
    37    19    42    1
    38    19    43    1
    39    20    21   ar
    40    21    44    1
    41    22    27   ar
    42    22    23   ar
    43    23    24   ar
    44    23    45    1
    45    24    25   ar
    46    24    46    1
    47    25    26   ar
    48    25    47    1
    49    26    27   ar
    50    26    48    1
    51    27    49    1
@<TRIPOS>SUBSTRUCTURE
     1 ZINC000450219577        1 TEMP              0 ****  ****    0 ROOT


##########                                Name:    ZINC000482187991
##########                DOCK_Rotatable_Bonds:                  11
##########                         Heavy_Atoms:                  29
##########                    Molecular_Weight:             407.414
##########                DOCK_Rotatable_Bonds:                  11
##########                       Formal_Charge:           0.0299996
##########                     HBond_Acceptors:                   8
##########                        HBond_Donors:                   1
##########                         Heavy_Atoms:                  29
##########                          Grid_Score:          -29.778025
##########                     Grid_vdw_energy:          -27.637545
##########                      Grid_es_energy:           -2.140480
##########           Internal_energy_repulsive:           18.941790

@<TRIPOS>MOLECULE
ZINC000482187991
 52 53 1 0 0
SMALL
USER_CHARGES


@<TRIPOS>ATOM
      1 C1          0.7057    1.8752   50.0544 C.3     1  ZINC000482187991    0.0200
      2 O2          0.1841    3.1368   50.4771 O.3     1  ZINC000482187991   -0.3000
      3 C3         -0.8738    3.1124   51.3315 C.ar    1  ZINC000482187991    0.1400
      4 C4         -2.0598    2.5201   50.9442 C.ar    1  ZINC000482187991   -0.1700
      5 C5         -3.1481    2.4951   51.8247 C.ar    1  ZINC000482187991   -0.1000
      6 C6         -4.4108    1.8659   51.4167 C.2     1  ZINC000482187991    0.4000
      7 O7         -4.3959    0.8401   50.7695 O.2     1  ZINC000482187991   -0.4500
      8 C8         -5.7250    2.4945   51.8023 C.3     1  ZINC000482187991   -0.1500
      9 C9         -5.8108    3.9020   51.2088 C.3     1  ZINC000482187991   -0.1300
     10 C10        -7.1567    4.5005   51.5275 C.2     1  ZINC000482187991    0.5200
     11 O11        -7.3079    5.1466   52.5427 O.2     1  ZINC000482187991   -0.5200
     12 N12        -8.1922    4.3176   50.6846 N.am    1  ZINC000482187991   -0.7200
     13 C13        -9.5010    4.8980   50.9953 C.3     1  ZINC000482187991    0.1500
     14 H14        -9.6374    4.9285   52.0763 H       1  ZINC000482187991    0.1300
     15 C15       -10.5847    4.0535   50.3760 C.ar    1  ZINC000482187991   -0.1100
     16 C16       -11.0236    4.3239   49.0934 C.ar    1  ZINC000482187991   -0.1000
     17 C17       -12.0177    3.5494   48.5254 C.ar    1  ZINC000482187991   -0.1200
     18 C18       -12.5726    2.5041   49.2397 C.ar    1  ZINC000482187991   -0.1100
     19 C19       -12.1330    2.2331   50.5220 C.ar    1  ZINC000482187991   -0.1200
     20 C20       -11.1360    3.0050   51.0885 C.ar    1  ZINC000482187991   -0.1000
     21 C21        -9.5761    6.3182   50.4314 C.3     1  ZINC000482187991    0.2500
     22 F22       -10.8255    6.8727   50.7292 F       1  ZINC000482187991   -0.1900
     23 F23        -8.5693    7.1017   51.0053 F       1  ZINC000482187991   -0.2000
     24 C24        -3.0295    3.0711   53.0953 C.ar    1  ZINC000482187991   -0.1900
     25 C25        -1.8402    3.6617   53.4756 C.ar    1  ZINC000482187991    0.1400
     26 O26        -1.7238    4.2210   54.7098 O.3     1  ZINC000482187991   -0.3000
     27 C27        -2.4556    3.6064   55.7722 C.3     1  ZINC000482187991    0.0200
     28 C28        -0.7578    3.6798   52.5986 C.ar    1  ZINC000482187991    0.0600
     29 O29         0.4104    4.2611   52.9763 O.3     1  ZINC000482187991   -0.3100
     30 C30         1.4027    3.4090   53.5518 C.3     1  ZINC000482187991    0.0400
     31 H31         1.5444    2.0373   49.3772 H       1  ZINC000482187991    0.1100
     32 H32         1.0446    1.3124   50.9242 H       1  ZINC000482187991    0.0600
     33 H33        -0.0739    1.3138   49.5395 H       1  ZINC000482187991    0.0600
     34 H34        -2.1478    2.0771   49.9631 H       1  ZINC000482187991    0.1500
     35 H35        -6.5448    1.8875   51.4179 H       1  ZINC000482187991    0.1100
     36 H36        -5.7948    2.5533   52.8885 H       1  ZINC000482187991    0.1100
     37 H37        -5.0255    4.5253   51.6367 H       1  ZINC000482187991    0.1000
     38 H38        -5.6837    3.8489   50.1276 H       1  ZINC000482187991    0.1000
     39 H39        -8.0709    3.8018   49.8720 H       1  ZINC000482187991    0.4100
     40 H40       -10.5901    5.1406   48.5352 H       1  ZINC000482187991    0.1200
     41 H41       -12.3611    3.7611   47.5235 H       1  ZINC000482187991    0.1300
     42 H42       -13.3498    1.8993   48.7962 H       1  ZINC000482187991    0.1300
     43 H43       -12.5669    1.4166   51.0803 H       1  ZINC000482187991    0.1300
     44 H44       -10.7926    2.7932   52.0903 H       1  ZINC000482187991    0.1300
     45 H45        -9.4406    6.2874   49.3502 H       1  ZINC000482187991    0.1200
     46 H46        -3.8669    3.0540   53.7770 H       1  ZINC000482187991    0.1500
     47 H47        -3.5204    3.6281   55.5400 H       1  ZINC000482187991    0.0600
     48 H48        -2.1298    2.5726   55.8873 H       1  ZINC000482187991    0.0600
     49 H49        -2.2749    4.1497   56.6997 H       1  ZINC000482187991    0.1100
     50 H50         1.0031    2.9425   54.4523 H       1  ZINC000482187991    0.0500
     51 H51         1.6786    2.6362   52.8343 H       1  ZINC000482187991    0.0500
     52 H52         2.2833    3.9981   53.8080 H       1  ZINC000482187991    0.1000
@<TRIPOS>BOND
     1     1     2    1
     2     1    31    1
     3     1    32    1
     4     1    33    1
     5     2     3    1
     6     3    28   ar
     7     3     4   ar
     8     4     5   ar
     9     4    34    1
    10     5     6    1
    11     5    24   ar
    12     6     7    2
    13     6     8    1
    14     8     9    1
    15     8    35    1
    16     8    36    1
    17     9    10    1
    18     9    37    1
    19     9    38    1
    20    10    11    2
    21    10    12   am
    22    12    13    1
    23    12    39    1
    24    13    14    1
    25    13    15    1
    26    13    21    1
    27    15    20   ar
    28    15    16   ar
    29    16    17   ar
    30    16    40    1
    31    17    18   ar
    32    17    41    1
    33    18    19   ar
    34    18    42    1
    35    19    20   ar
    36    19    43    1
    37    20    44    1
    38    21    22    1
    39    21    23    1
    40    21    45    1
    41    24    25   ar
    42    24    46    1
    43    25    26    1
    44    25    28   ar
    45    26    27    1
    46    27    47    1
    47    27    48    1
    48    27    49    1
    49    28    29    1
    50    29    30    1
    51    30    50    1
    52    30    51    1
    53    30    52    1
@<TRIPOS>SUBSTRUCTURE
     1 ZINC000482187991        1 TEMP              0 ****  ****    0 ROOT


##########                                Name:    ZINC000047262406
##########                DOCK_Rotatable_Bonds:                   6
##########                         Heavy_Atoms:                  28
##########                    Molecular_Weight:             417.919
##########                DOCK_Rotatable_Bonds:                   6
##########                       Formal_Charge:          -0.0100002
##########                     HBond_Acceptors:                   9
##########                        HBond_Donors:                   1
##########                         Heavy_Atoms:                  28
##########                          Grid_Score:          -29.774309
##########                     Grid_vdw_energy:          -28.834778
##########                      Grid_es_energy:           -0.939531
##########           Internal_energy_repulsive:           12.047640

@<TRIPOS>MOLECULE
ZINC000047262406
 48 51 1 0 0
SMALL
USER_CHARGES


@<TRIPOS>ATOM
      1 C1        -10.7569    1.9032   55.3117 C.3     1  ZINC000047262406   -0.1500
      2 C2        -10.7112    2.7056   54.0098 C.3     1  ZINC000047262406    0.1800
      3 H3        -11.1743    3.6798   54.1670 H       1  ZINC000047262406    0.0800
      4 C4        -11.4597    1.9612   52.9344 C.2     1  ZINC000047262406    0.1700
      5 N5        -11.9666    0.7652   53.0376 N.2     1  ZINC000047262406   -0.2500
      6 N6        -12.5355    0.4406   51.9303 N.2     1  ZINC000047262406   -0.2700
      7 C7        -12.4097    1.4298   51.0725 C.2     1  ZINC000047262406    0.2400
      8 C8        -12.9203    1.4600   49.6938 C.2     1  ZINC000047262406   -0.1500
      9 C9        -13.7111    0.5082   49.1259 C.2     1  ZINC000047262406   -0.0600
     10 C10       -14.0595    0.7627   47.8179 C.2     1  ZINC000047262406   -0.1400
     11 C11       -13.5705    1.8985   47.3094 C.2     1  ZINC000047262406   -0.1900
     12 S12       -12.6111    2.7350   48.5222 S.3     1  ZINC000047262406    0.1700
     13 O13       -11.7300    2.4141   51.6965 O.3     1  ZINC000047262406   -0.2200
     14 N14        -9.3135    2.8888   53.5964 N.3     1  ZINC000047262406   -0.5200
     15 C15        -9.1780    4.0400   52.6948 C.3     1  ZINC000047262406    0.0500
     16 C16        -7.6967    4.2886   52.4018 C.3     1  ZINC000047262406   -0.1000
     17 C17        -7.0920    3.0379   51.7575 C.3     1  ZINC000047262406   -0.1100
     18 C18        -5.6195    3.2550   51.5214 C.2     1  ZINC000047262406    0.5100
     19 O19        -5.2237    4.3206   51.0988 O.2     1  ZINC000047262406   -0.4600
     20 N20        -4.7425    2.2648   51.7800 N.am    1  ZINC000047262406   -0.6600
     21 C21        -3.3798    2.4656   51.5616 C.ar    1  ZINC000047262406    0.3600
     22 C22        -2.5913    2.9970   52.5752 C.ar    1  ZINC000047262406   -0.2000
     23 C23        -1.2403    3.1911   52.3459 C.ar    1  ZINC000047262406   -0.0400
     24 C24        -0.7228    2.8452   51.1045 C.ar    1  ZINC000047262406   -0.1200
     25 Cl25        0.9651    3.0675   50.7646 Cl      1  ZINC000047262406   -0.0500
     26 C26        -1.5661    2.3214   50.1425 C.ar    1  ZINC000047262406    0.1500
     27 N27        -2.8489    2.1435   50.3927 N.ar    1  ZINC000047262406   -0.4600
     28 C28        -7.2894    1.8440   52.6956 C.3     1  ZINC000047262406   -0.1100
     29 C29        -8.7825    1.6663   52.9801 C.3     1  ZINC000047262406    0.0600
     30 H30       -10.2154    2.4416   56.0896 H       1  ZINC000047262406    0.0800
     31 H31       -11.7939    1.7673   55.6185 H       1  ZINC000047262406    0.0700
     32 H32       -10.2938    0.9290   55.1546 H       1  ZINC000047262406    0.0800
     33 H33       -14.0380   -0.3735   49.6572 H       1  ZINC000047262406    0.1600
     34 H34       -14.6826    0.0927   47.2440 H       1  ZINC000047262406    0.1600
     35 H35       -13.7429    2.2520   46.3035 H       1  ZINC000047262406    0.1800
     36 H36        -9.7032    3.8345   51.7619 H       1  ZINC000047262406    0.0400
     37 H37        -9.6081    4.9235   53.1665 H       1  ZINC000047262406    0.0900
     38 H38        -7.5973    5.1333   51.7201 H       1  ZINC000047262406    0.0800
     39 H39        -7.1733    4.5077   53.3325 H       1  ZINC000047262406    0.0900
     40 H40        -7.5883    2.8416   50.8071 H       1  ZINC000047262406    0.1000
     41 H41        -5.0591    1.4125   52.1180 H       1  ZINC000047262406    0.4200
     42 H42        -3.0271    3.2553   53.5290 H       1  ZINC000047262406    0.1500
     43 H43        -0.6031    3.6025   53.1148 H       1  ZINC000047262406    0.1500
     44 H44        -1.1689    2.0511   49.1752 H       1  ZINC000047262406    0.1700
     45 H45        -6.8989    0.9422   52.2239 H       1  ZINC000047262406    0.0700
     46 H46        -6.7597    2.0247   53.6310 H       1  ZINC000047262406    0.0800
     47 H47        -8.9253    0.8257   53.6591 H       1  ZINC000047262406    0.0700
     48 H48        -9.3096    1.4720   52.0460 H       1  ZINC000047262406    0.0400
@<TRIPOS>BOND
     1     1     2    1
     2     1    30    1
     3     1    31    1
     4     1    32    1
     5     2     3    1
     6     2     4    1
     7     2    14    1
     8     4    13    1
     9     4     5    2
    10     5     6    1
    11     6     7    2
    12     7     8    1
    13     7    13    1
    14     8    12    1
    15     8     9    2
    16     9    10    1
    17     9    33    1
    18    10    11    2
    19    10    34    1
    20    11    12    1
    21    11    35    1
    22    14    29    1
    23    14    15    1
    24    15    16    1
    25    15    36    1
    26    15    37    1
    27    16    17    1
    28    16    38    1
    29    16    39    1
    30    17    18    1
    31    17    28    1
    32    17    40    1
    33    18    19    2
    34    18    20   am
    35    20    21    1
    36    20    41    1
    37    21    27   ar
    38    21    22   ar
    39    22    23   ar
    40    22    42    1
    41    23    24   ar
    42    23    43    1
    43    24    25    1
    44    24    26   ar
    45    26    27   ar
    46    26    44    1
    47    28    29    1
    48    28    45    1
    49    28    46    1
    50    29    47    1
    51    29    48    1
@<TRIPOS>SUBSTRUCTURE
     1 ZINC000047262406        1 TEMP              0 ****  ****    0 ROOT


##########                                Name:    ZINC000369046711
##########                DOCK_Rotatable_Bonds:                   8
##########                         Heavy_Atoms:                  26
##########                    Molecular_Weight:             367.467
##########                DOCK_Rotatable_Bonds:                   8
##########                       Formal_Charge:        -7.63685e-07
##########                     HBond_Acceptors:                   8
##########                        HBond_Donors:                   1
##########                         Heavy_Atoms:                  26
##########                          Grid_Score:          -29.748051
##########                     Grid_vdw_energy:          -28.805120
##########                      Grid_es_energy:           -0.942931
##########           Internal_energy_repulsive:           17.898483

@<TRIPOS>MOLECULE
ZINC000369046711
 56 58 1 0 0
SMALL
USER_CHARGES


@<TRIPOS>ATOM
      1 C1         -7.4426    0.9962   64.4982 C.3     1  ZINC000369046711   -0.1800
      2 C2         -8.5583    2.0402   64.5752 C.3     1  ZINC000369046711    0.1400
      3 C3         -9.5595    1.6378   65.6600 C.3     1  ZINC000369046711   -0.1800
      4 C4         -7.9571    3.4049   64.9171 C.3     1  ZINC000369046711   -0.1400
      5 O5         -9.2378    2.1178   63.2943 O.3     1  ZINC000369046711   -0.3700
      6 C6         -9.3903    0.9669   62.6125 C.2     1  ZINC000369046711    0.6500
      7 O7         -9.9005    0.0046   63.1513 O.2     1  ZINC000369046711   -0.5700
      8 N8         -8.9770    0.8821   61.3325 N.am    1  ZINC000369046711   -0.7100
      9 C9         -9.1446   -0.3698   60.5901 C.3     1  ZINC000369046711    0.1800
     10 H10        -9.1612   -1.2011   61.2949 H       1  ZINC000369046711    0.0900
     11 C11        -7.9621   -0.5467   59.6384 C.3     1  ZINC000369046711   -0.1300
     12 C12        -7.9673    0.6245   58.6491 C.3     1  ZINC000369046711   -0.1200
     13 C13        -9.2387    0.5407   57.8094 C.3     1  ZINC000369046711   -0.1200
     14 C14       -10.4857    0.6789   58.6853 C.3     1  ZINC000369046711   -0.1000
     15 H15       -10.6379    1.7044   59.0217 H       1  ZINC000369046711    0.0900
     16 C16       -11.6772    0.1517   57.8398 C.3     1  ZINC000369046711    0.0400
     17 N17       -11.8175   -1.2857   58.1440 N.3     1  ZINC000369046711   -0.5200
     18 C18       -11.6823   -2.0971   56.9269 C.3     1  ZINC000369046711    0.1200
     19 C19       -12.9523   -2.0087   56.1206 C.2     1  ZINC000369046711    0.2900
     20 N20       -13.1412   -1.2602   55.0642 N.2     1  ZINC000369046711   -0.5400
     21 C21       -14.3802   -1.4311   54.6050 C.2     1  ZINC000369046711    0.2000
     22 N22       -14.9997   -2.2945   55.3661 N.2     1  ZINC000369046711   -0.3200
     23 N23       -14.0870   -2.6895   56.3577 N.pl3   1  ZINC000369046711   -0.3700
     24 C24       -14.3268   -3.6460   57.4411 C.3     1  ZINC000369046711    0.1000
     25 C25       -15.3595   -3.0691   58.4115 C.3     1  ZINC000369046711    0.0500
     26 F26       -15.5766   -3.9757   59.4546 F       1  ZINC000369046711   -0.2000
     27 C27       -10.7918   -1.6579   59.1474 C.3     1  ZINC000369046711    0.0500
     28 C28       -10.4557   -0.3289   59.8473 C.3     1  ZINC000369046711   -0.1000
     29 H29       -11.2499   -0.0844   60.5527 H       1  ZINC000369046711    0.0900
     30 H30        -7.8710    0.0240   64.2546 H       1  ZINC000369046711    0.0900
     31 H31        -6.7294    1.2829   63.7255 H       1  ZINC000369046711    0.0600
     32 H32        -6.9326    0.9379   65.4597 H       1  ZINC000369046711    0.0700
     33 H33        -9.0495    1.5795   66.6215 H       1  ZINC000369046711    0.0700
     34 H34       -10.3544    2.3816   65.7148 H       1  ZINC000369046711    0.0600
     35 H35        -9.9878    0.6655   65.4164 H       1  ZINC000369046711    0.0900
     36 H36        -7.2438    3.6917   64.1443 H       1  ZINC000369046711    0.0700
     37 H37        -8.7521    4.1487   64.9719 H       1  ZINC000369046711    0.0700
     38 H38        -7.4471    3.3467   65.8786 H       1  ZINC000369046711    0.0800
     39 H39        -8.5687    1.6498   60.9028 H       1  ZINC000369046711    0.4000
     40 H40        -7.0306   -0.5462   60.2046 H       1  ZINC000369046711    0.0700
     41 H41        -8.0633   -1.4869   59.0963 H       1  ZINC000369046711    0.0800
     42 H42        -7.9503    1.5672   59.1961 H       1  ZINC000369046711    0.0600
     43 H43        -7.0939    0.5606   57.9999 H       1  ZINC000369046711    0.0700
     44 H44        -9.2315    1.3400   57.0684 H       1  ZINC000369046711    0.0700
     45 H45        -9.2662   -0.4210   57.2970 H       1  ZINC000369046711    0.0600
     46 H46       -12.5903    0.6808   58.1128 H       1  ZINC000369046711    0.0800
     47 H47       -11.4702    0.2891   56.7784 H       1  ZINC000369046711    0.0800
     48 H48       -10.8479   -1.7244   56.3327 H       1  ZINC000369046711    0.0800
     49 H49       -11.4976   -3.1356   57.2013 H       1  ZINC000369046711    0.1000
     50 H50       -14.8042   -0.9360   53.7438 H       1  ZINC000369046711    0.2200
     51 H51       -14.7024   -4.5805   57.0241 H       1  ZINC000369046711    0.1200
     52 H52       -13.3941   -3.8342   57.9726 H       1  ZINC000369046711    0.1100
     53 H53       -14.9894   -2.1283   58.8189 H       1  ZINC000369046711    0.0900
     54 H54       -16.2961   -2.8926   57.8827 H       1  ZINC000369046711    0.0800
     55 H55       -11.1979   -2.3748   59.8609 H       1  ZINC000369046711    0.0900
     56 H56        -9.9075   -2.0647   58.6568 H       1  ZINC000369046711    0.0600
@<TRIPOS>BOND
     1     1     2    1
     2     1    30    1
     3     1    31    1
     4     1    32    1
     5     2     3    1
     6     2     4    1
     7     2     5    1
     8     3    33    1
     9     3    34    1
    10     3    35    1
    11     4    36    1
    12     4    37    1
    13     4    38    1
    14     5     6    1
    15     6     7    2
    16     6     8   am
    17     8     9    1
    18     8    39    1
    19     9    10    1
    20     9    28    1
    21     9    11    1
    22    11    12    1
    23    11    40    1
    24    11    41    1
    25    12    13    1
    26    12    42    1
    27    12    43    1
    28    13    14    1
    29    13    44    1
    30    13    45    1
    31    14    15    1
    32    14    28    1
    33    14    16    1
    34    16    17    1
    35    16    46    1
    36    16    47    1
    37    17    18    1
    38    17    27    1
    39    18    19    1
    40    18    48    1
    41    18    49    1
    42    19    23    1
    43    19    20    2
    44    20    21    1
    45    21    22    2
    46    21    50    1
    47    22    23    1
    48    23    24    1
    49    24    25    1
    50    24    51    1
    51    24    52    1
    52    25    26    1
    53    25    53    1
    54    25    54    1
    55    27    28    1
    56    27    55    1
    57    27    56    1
    58    28    29    1
@<TRIPOS>SUBSTRUCTURE
     1 ZINC000369046711        1 TEMP              0 ****  ****    0 ROOT


##########                                Name:    ZINC001579482641
##########                DOCK_Rotatable_Bonds:                   5
##########                         Heavy_Atoms:                  26
##########                    Molecular_Weight:             355.359
##########                DOCK_Rotatable_Bonds:                   5
##########                       Formal_Charge:                0.05
##########                     HBond_Acceptors:                  11
##########                        HBond_Donors:                   1
##########                         Heavy_Atoms:                  26
##########                          Grid_Score:          -29.743166
##########                     Grid_vdw_energy:          -29.564516
##########                      Grid_es_energy:           -0.178651
##########           Internal_energy_repulsive:           18.817335

@<TRIPOS>MOLECULE
ZINC001579482641
 43 46 1 0 0
SMALL
USER_CHARGES


@<TRIPOS>ATOM
      1 C1          0.1784    1.5145   48.4589 C.3     1  ZINC001579482641    0.0300
      2 O2         -1.1263    1.8706   48.9874 O.3     1  ZINC001579482641   -0.3300
      3 C3         -1.1618    2.3921   50.2291 C.2     1  ZINC001579482641    0.5300
      4 O4         -0.1319    2.7403   50.7712 O.2     1  ZINC001579482641   -0.4900
      5 C5         -2.4530    2.5406   50.9313 C.ar    1  ZINC001579482641    0.0900
      6 C6         -3.6430    2.2898   50.2458 C.ar    1  ZINC001579482641   -0.0800
      7 C7         -4.8491    2.4302   50.9078 C.ar    1  ZINC001579482641   -0.1200
      8 C8         -4.8326    2.8198   52.2449 C.ar    1  ZINC001579482641    0.1100
      9 N9         -6.0199    2.9725   52.9478 N.3     1  ZINC001579482641   -0.4600
     10 C10        -6.8394    4.0715   52.3763 C.3     1  ZINC001579482641    0.0400
     11 C11        -8.2650    3.7579   52.8959 C.3     1  ZINC001579482641   -0.1100
     12 C12        -8.3237    2.2143   52.8340 C.3     1  ZINC001579482641   -0.0100
     13 H13        -8.8109    1.8909   51.9141 H       1  ZINC001579482641    0.0900
     14 C14        -9.0573    1.6703   54.0327 C.2     1  ZINC001579482641    0.1800
     15 N15        -9.2663    2.2938   55.1601 N.2     1  ZINC001579482641   -0.2600
     16 N16        -9.9254    1.5326   55.9600 N.2     1  ZINC001579482641   -0.2900
     17 C17       -10.1668    0.3889   55.3791 C.2     1  ZINC001579482641    0.1500
     18 N18        -9.6272    0.4456   54.1376 N.pl3   1  ZINC001579482641   -0.4800
     19 C19        -9.6481   -0.6069   53.1187 C.3     1  ZINC001579482641    0.0700
     20 C20        -6.8539    1.7549   52.8503 C.3     1  ZINC001579482641    0.0600
     21 C21        -3.5978    3.0558   52.8729 C.ar    1  ZINC001579482641    0.2300
     22 C22        -3.5643    3.4713   54.2967 C.2     1  ZINC001579482641    0.2100
     23 N23        -4.6012    3.6297   55.0955 N.2     1  ZINC001579482641   -0.2600
     24 N24        -4.1579    3.9953   56.2490 N.pl3   1  ZINC001579482641   -0.2300
     25 N25        -2.8737    4.0739   56.2068 N.2     1  ZINC001579482641   -0.0500
     26 N26        -2.4732    3.7534   55.0232 N.2     1  ZINC001579482641   -0.2000
     27 N27        -2.4666    2.9056   52.2080 N.ar    1  ZINC001579482641   -0.4000
     28 H28         0.6400    0.7669   49.1039 H       1  ZINC001579482641    0.0700
     29 H29         0.0648    1.1074   47.4541 H       1  ZINC001579482641    0.1100
     30 H30         0.8100    2.4022   48.4219 H       1  ZINC001579482641    0.0700
     31 H31        -3.6218    1.9895   49.2086 H       1  ZINC001579482641    0.1600
     32 H32        -5.7832    2.2423   50.3991 H       1  ZINC001579482641    0.1600
     33 H33        -6.4988    5.0383   52.7471 H       1  ZINC001579482641    0.1000
     34 H34        -6.8124    4.0450   51.2870 H       1  ZINC001579482641    0.0600
     35 H35        -8.3875    4.1078   53.9209 H       1  ZINC001579482641    0.1000
     36 H36        -9.0188    4.1991   52.2439 H       1  ZINC001579482641    0.0800
     37 H37       -10.7012   -0.4463   55.8073 H       1  ZINC001579482641    0.2200
     38 H38       -10.5377   -0.4950   52.4989 H       1  ZINC001579482641    0.0800
     39 H39        -8.7581   -0.5262   52.4946 H       1  ZINC001579482641    0.0900
     40 H40        -9.6640   -1.5826   53.6044 H       1  ZINC001579482641    0.0900
     41 H41        -6.6222    1.2188   51.9300 H       1  ZINC001579482641    0.0600
     42 H42        -6.6753    1.1125   53.7125 H       1  ZINC001579482641    0.1000
     43 H43        -4.7061    4.1825   57.0271 H       1  ZINC001579482641    0.4800
@<TRIPOS>BOND
     1     1     2    1
     2     1    28    1
     3     1    29    1
     4     1    30    1
     5     2     3    1
     6     3     4    2
     7     3     5    1
     8     5    27   ar
     9     5     6   ar
    10     6     7   ar
    11     6    31    1
    12     7     8   ar
    13     7    32    1
    14     8     9    1
    15     8    21   ar
    16     9    20    1
    17     9    10    1
    18    10    11    1
    19    10    33    1
    20    10    34    1
    21    11    12    1
    22    11    35    1
    23    11    36    1
    24    12    13    1
    25    12    14    1
    26    12    20    1
    27    14    18    1
    28    14    15    2
    29    15    16    1
    30    16    17    2
    31    17    18    1
    32    17    37    1
    33    18    19    1
    34    19    38    1
    35    19    39    1
    36    19    40    1
    37    20    41    1
    38    20    42    1
    39    21    22    1
    40    21    27   ar
    41    22    26    1
    42    22    23    2
    43    23    24    1
    44    24    25    1
    45    24    43    1
    46    25    26    2
@<TRIPOS>SUBSTRUCTURE
     1 ZINC001579482641        1 TEMP              0 ****  ****    0 ROOT


##########                                Name:    ZINC001065334255
##########                DOCK_Rotatable_Bonds:                   7
##########                         Heavy_Atoms:                  23
##########                    Molecular_Weight:             346.448
##########                DOCK_Rotatable_Bonds:                   7
##########                       Formal_Charge:        -5.81145e-07
##########                     HBond_Acceptors:                   8
##########                        HBond_Donors:                   1
##########                         Heavy_Atoms:                  23
##########                          Grid_Score:          -29.737207
##########                     Grid_vdw_energy:          -28.296173
##########                      Grid_es_energy:           -1.441035
##########           Internal_energy_repulsive:           20.091711

@<TRIPOS>MOLECULE
ZINC001065334255
 49 50 1 0 0
SMALL
USER_CHARGES


@<TRIPOS>ATOM
      1 C1          1.5809    3.4021   59.2672 C.3     1  ZINC001065334255   -0.1500
      2 C2          0.9435    2.0646   59.6489 C.3     1  ZINC001065334255   -0.0800
      3 C3          1.7674    1.4046   60.7564 C.3     1  ZINC001065334255   -0.1500
      4 C4         -0.4830    2.3034   60.1480 C.3     1  ZINC001065334255   -0.1400
      5 C5         -1.2934    2.9578   59.0590 C.2     1  ZINC001065334255    0.5100
      6 O6         -1.3831    4.1665   59.0129 O.2     1  ZINC001065334255   -0.5300
      7 N7         -1.9184    2.2000   58.1362 N.am    1  ZINC001065334255   -0.7300
      8 C8         -2.7048    2.8363   57.0765 C.3     1  ZINC001065334255    0.1300
      9 C9         -1.8651    2.9225   55.8003 C.3     1  ZINC001065334255    0.0700
     10 H10        -1.5766    1.9195   55.4859 H       1  ZINC001065334255    0.0700
     11 C11        -2.6862    3.5903   54.6914 C.3     1  ZINC001065334255    0.0800
     12 N12        -1.8020    3.8307   53.5399 N.am    1  ZINC001065334255   -0.6100
     13 C13        -2.1559    3.4393   52.2998 C.2     1  ZINC001065334255    0.5400
     14 O14        -1.4137    3.6469   51.3634 O.2     1  ZINC001065334255   -0.5200
     15 C15        -3.4739    2.7436   52.0766 C.3     1  ZINC001065334255   -0.1100
     16 H16        -3.6315    1.9874   52.8457 H       1  ZINC001065334255    0.1200
     17 C17        -3.4961    2.0909   50.6833 C.3     1  ZINC001065334255   -0.1000
     18 C18        -4.9465    1.6903   50.3480 C.3     1  ZINC001065334255   -0.5900
     19 S19        -5.9928    2.8690   51.2765 S.o2    1  ZINC001065334255    2.3900
     20 O20        -6.6504    3.7359   50.3627 O.2     1  ZINC001065334255   -0.9300
     21 O21        -6.7485    2.1620   52.2503 O.2     1  ZINC001065334255   -0.9300
     22 C22        -4.6303    3.7761   52.1023 C.3     1  ZINC001065334255   -0.5900
     23 C23        -0.5202    4.5116   53.7824 C.3     1  ZINC001065334255    0.0600
     24 C24         0.1953    3.7989   54.9356 C.3     1  ZINC001065334255    0.0500
     25 O25        -0.6921    3.6999   56.0520 O.3     1  ZINC001065334255   -0.3700
     26 H26         2.5972    3.2320   58.9118 H       1  ZINC001065334255    0.0600
     27 H27         0.9940    3.8724   58.4783 H       1  ZINC001065334255    0.0500
     28 H28         1.6058    4.0549   60.1398 H       1  ZINC001065334255    0.0600
     29 H29         0.9187    1.4119   58.7764 H       1  ZINC001065334255    0.0800
     30 H30         1.7923    2.0574   61.6290 H       1  ZINC001065334255    0.0500
     31 H31         1.3133    0.4518   61.0283 H       1  ZINC001065334255    0.0700
     32 H32         2.7837    1.2345   60.4008 H       1  ZINC001065334255    0.0500
     33 H33        -0.9382    1.3502   60.4168 H       1  ZINC001065334255    0.0900
     34 H34        -0.4578    2.9535   61.0226 H       1  ZINC001065334255    0.0900
     35 H35        -1.8476    1.2333   58.1738 H       1  ZINC001065334255    0.4000
     36 H36        -3.5998    2.2451   56.8833 H       1  ZINC001065334255    0.0900
     37 H37        -2.9927    3.8396   57.3904 H       1  ZINC001065334255    0.0800
     38 H38        -3.5049    2.9345   54.3950 H       1  ZINC001065334255    0.1100
     39 H39        -3.0864    4.5383   55.0511 H       1  ZINC001065334255    0.0900
     40 H40        -3.1308    2.8001   49.9406 H       1  ZINC001065334255    0.1000
     41 H41        -2.8618    1.2045   50.6838 H       1  ZINC001065334255    0.1000
     42 H42        -5.1276    1.7855   49.2774 H       1  ZINC001065334255    0.1500
     43 H43        -5.1430    0.6697   50.6766 H       1  ZINC001065334255    0.1400
     44 H44        -4.9005    4.0306   53.1273 H       1  ZINC001065334255    0.1400
     45 H45        -4.3628    4.6696   51.5384 H       1  ZINC001065334255    0.1500
     46 H46         0.0954    4.4659   52.8841 H       1  ZINC001065334255    0.1000
     47 H47        -0.7024    5.5524   54.0506 H       1  ZINC001065334255    0.0900
     48 H48         0.4920    2.7994   54.6177 H       1  ZINC001065334255    0.0600
     49 H49         1.0795    4.3680   55.2227 H       1  ZINC001065334255    0.1100
@<TRIPOS>BOND
     1     1     2    1
     2     1    26    1
     3     1    27    1
     4     1    28    1
     5     2     3    1
     6     2     4    1
     7     2    29    1
     8     3    30    1
     9     3    31    1
    10     3    32    1
    11     4     5    1
    12     4    33    1
    13     4    34    1
    14     5     6    2
    15     5     7   am
    16     7     8    1
    17     7    35    1
    18     8     9    1
    19     8    36    1
    20     8    37    1
    21     9    10    1
    22     9    25    1
    23     9    11    1
    24    11    12    1
    25    11    38    1
    26    11    39    1
    27    12    13   am
    28    12    23    1
    29    13    14    2
    30    13    15    1
    31    15    16    1
    32    15    22    1
    33    15    17    1
    34    17    18    1
    35    17    40    1
    36    17    41    1
    37    18    19    1
    38    18    42    1
    39    18    43    1
    40    19    20    2
    41    19    21    2
    42    19    22    1
    43    22    44    1
    44    22    45    1
    45    23    24    1
    46    23    46    1
    47    23    47    1
    48    24    25    1
    49    24    48    1
    50    24    49    1
@<TRIPOS>SUBSTRUCTURE
     1 ZINC001065334255        1 TEMP              0 ****  ****    0 ROOT


##########                                Name:    ZINC000469435497
##########                DOCK_Rotatable_Bonds:                   6
##########                         Heavy_Atoms:                  27
##########                    Molecular_Weight:             364.444
##########                DOCK_Rotatable_Bonds:                   6
##########                       Formal_Charge:           0.0300001
##########                     HBond_Acceptors:                   5
##########                        HBond_Donors:                   2
##########                         Heavy_Atoms:                  27
##########                          Grid_Score:          -29.725603
##########                     Grid_vdw_energy:          -28.840082
##########                      Grid_es_energy:           -0.885521
##########           Internal_energy_repulsive:            5.377872

@<TRIPOS>MOLECULE
ZINC000469435497
 51 54 1 0 0
SMALL
USER_CHARGES


@<TRIPOS>ATOM
      1 C1          2.4259    0.1052   50.1485 C.3     1  ZINC000469435497   -0.1600
      2 C2          2.3023    1.5107   49.5570 C.3     1  ZINC000469435497    0.1000
      3 C3          3.6252    1.9492   48.9258 C.3     1  ZINC000469435497   -0.1400
      4 C4          1.1514    1.5717   48.5251 C.3     1  ZINC000469435497   -0.1000
      5 C5         -0.0136    2.0297   49.3812 C.ar    1  ZINC000469435497   -0.1500
      6 C6         -1.3734    2.0265   49.1674 C.ar    1  ZINC000469435497   -0.0700
      7 C7         -2.2306    2.5106   50.1482 C.ar    1  ZINC000469435497    0.1100
      8 N8         -3.6157    2.5096   49.9366 N.am    1  ZINC000469435497   -0.6600
      9 C9         -4.4098    1.7111   50.6769 C.2     1  ZINC000469435497    0.5100
     10 O10        -3.9255    0.9933   51.5262 O.2     1  ZINC000469435497   -0.5200
     11 C11        -5.8996    1.7099   50.4494 C.3     1  ZINC000469435497    0.1000
     12 N12        -6.5907    1.7682   51.7397 N.am    1  ZINC000469435497   -0.7200
     13 C13        -7.2095    0.6727   52.2228 C.2     1  ZINC000469435497    0.5700
     14 O14        -7.1953   -0.3633   51.5872 O.2     1  ZINC000469435497   -0.5300
     15 C15        -7.9056    0.7311   53.5259 C.ar    1  ZINC000469435497   -0.1400
     16 C16        -7.4878    1.6337   54.5047 C.ar    1  ZINC000469435497   -0.0800
     17 C17        -8.1428    1.6811   55.7168 C.ar    1  ZINC000469435497   -0.1100
     18 C18        -9.2135    0.8377   55.9692 C.ar    1  ZINC000469435497   -0.0700
     19 C19       -10.0811    0.7012   57.2027 C.3     1  ZINC000469435497   -0.0900
     20 C20       -11.3391   -0.0577   56.7302 C.3     1  ZINC000469435497   -0.1200
     21 C21       -10.8092   -0.8585   55.5219 C.3     1  ZINC000469435497   -0.0800
     22 C22        -9.6325   -0.0599   55.0024 C.ar    1  ZINC000469435497   -0.1100
     23 C23        -8.9870   -0.1119   53.7817 C.ar    1  ZINC000469435497   -0.0400
     24 C24        -1.7066    2.9950   51.3390 C.ar    1  ZINC000469435497   -0.1000
     25 C25        -0.3435    3.0001   51.5478 C.ar    1  ZINC000469435497   -0.1200
     26 C26         0.5200    2.5190   50.5670 C.ar    1  ZINC000469435497    0.1000
     27 O27         1.8805    2.4502   50.5603 O.3     1  ZINC000469435497   -0.3000
     28 H28         1.4656   -0.1998   50.5645 H       1  ZINC000469435497    0.0600
     29 H29         2.7211   -0.5937   49.3659 H       1  ZINC000469435497    0.0800
     30 H30         3.1790    0.1074   50.9365 H       1  ZINC000469435497    0.0700
     31 H31         3.8900    1.2618   48.1224 H       1  ZINC000469435497    0.0800
     32 H32         3.5192    2.9562   48.5222 H       1  ZINC000469435497    0.0700
     33 H33         4.4091    1.9420   49.6832 H       1  ZINC000469435497    0.0700
     34 H34         1.3685    2.2982   47.7420 H       1  ZINC000469435497    0.0900
     35 H35         0.9581    0.5874   48.0986 H       1  ZINC000469435497    0.0900
     36 H36        -1.7737    1.6486   48.2382 H       1  ZINC000469435497    0.1400
     37 H37        -4.0030    3.0837   49.2574 H       1  ZINC000469435497    0.4200
     38 H38        -6.1761    2.5770   49.8496 H       1  ZINC000469435497    0.1100
     39 H39        -6.1862    0.7986   49.9245 H       1  ZINC000469435497    0.1100
     40 H40        -6.6031    2.5953   52.2464 H       1  ZINC000469435497    0.4100
     41 H41        -6.6540    2.2929   54.3134 H       1  ZINC000469435497    0.1300
     42 H42        -7.8193    2.3795   56.4745 H       1  ZINC000469435497    0.1300
     43 H43        -9.5601    0.1288   57.9702 H       1  ZINC000469435497    0.0900
     44 H44       -10.3541    1.6853   57.5839 H       1  ZINC000469435497    0.0800
     45 H45       -11.7030   -0.7275   57.5093 H       1  ZINC000469435497    0.0800
     46 H46       -12.1185    0.6389   56.4215 H       1  ZINC000469435497    0.0700
     47 H47       -10.4837   -1.8494   55.8383 H       1  ZINC000469435497    0.0800
     48 H48       -11.5794   -0.9396   54.7549 H       1  ZINC000469435497    0.0800
     49 H49        -9.3181   -0.8086   53.0258 H       1  ZINC000469435497    0.1400
     50 H50        -2.3694    3.3696   52.1051 H       1  ZINC000469435497    0.1400
     51 H51         0.0564    3.3789   52.4768 H       1  ZINC000469435497    0.1300
@<TRIPOS>BOND
     1     1     2    1
     2     1    28    1
     3     1    29    1
     4     1    30    1
     5     2    27    1
     6     2     3    1
     7     2     4    1
     8     3    31    1
     9     3    32    1
    10     3    33    1
    11     4     5    1
    12     4    34    1
    13     4    35    1
    14     5    26   ar
    15     5     6   ar
    16     6     7   ar
    17     6    36    1
    18     7     8    1
    19     7    24   ar
    20     8     9   am
    21     8    37    1
    22     9    10    2
    23     9    11    1
    24    11    12    1
    25    11    38    1
    26    11    39    1
    27    12    13   am
    28    12    40    1
    29    13    14    2
    30    13    15    1
    31    15    23   ar
    32    15    16   ar
    33    16    17   ar
    34    16    41    1
    35    17    18   ar
    36    17    42    1
    37    18    22   ar
    38    18    19    1
    39    19    20    1
    40    19    43    1
    41    19    44    1
    42    20    21    1
    43    20    45    1
    44    20    46    1
    45    21    22    1
    46    21    47    1
    47    21    48    1
    48    22    23   ar
    49    23    49    1
    50    24    25   ar
    51    24    50    1
    52    25    26   ar
    53    25    51    1
    54    26    27    1
@<TRIPOS>SUBSTRUCTURE
     1 ZINC000469435497        1 TEMP              0 ****  ****    0 ROOT


##########                                Name:    ZINC000866717058
##########                DOCK_Rotatable_Bonds:                   7
##########                         Heavy_Atoms:                  25
##########                    Molecular_Weight:             380.388
##########                DOCK_Rotatable_Bonds:                   7
##########                       Formal_Charge:                0.04
##########                     HBond_Acceptors:                  10
##########                        HBond_Donors:                   1
##########                         Heavy_Atoms:                  25
##########                          Grid_Score:          -29.721682
##########                     Grid_vdw_energy:          -28.751247
##########                      Grid_es_energy:           -0.970434
##########           Internal_energy_repulsive:           14.124806

@<TRIPOS>MOLECULE
ZINC000866717058
 44 45 1 0 0
SMALL
USER_CHARGES


@<TRIPOS>ATOM
      1 C1          0.9071    3.9302   52.7319 C.3     1  ZINC000866717058   -0.1100
      2 C2         -0.2036    3.4384   51.8401 C.ar    1  ZINC000866717058    0.2400
      3 N3         -1.4474    3.7853   52.0964 N.ar    1  ZINC000866717058   -0.5500
      4 C4         -2.4555    3.3773   51.3406 C.ar    1  ZINC000866717058    0.3500
      5 O5         -3.7180    3.7628   51.6464 O.3     1  ZINC000866717058   -0.2800
      6 C6         -4.5196    2.8351   52.3806 C.3     1  ZINC000866717058    0.0500
      7 H7         -3.8739    2.1138   52.8814 H       1  ZINC000866717058    0.1300
      8 C8         -5.3466    3.5896   53.4236 C.3     1  ZINC000866717058   -0.1700
      9 C9         -5.4572    2.1000   51.4207 C.3     1  ZINC000866717058    0.4600
     10 F10        -6.6378    1.7610   52.0903 F       1  ZINC000866717058   -0.1700
     11 F11        -5.7583    2.9303   50.3357 F       1  ZINC000866717058   -0.1700
     12 F12        -4.8327    0.9365   50.9584 F       1  ZINC000866717058   -0.1700
     13 C13        -2.2369    2.5590   50.2368 C.ar    1  ZINC000866717058   -0.1900
     14 C14        -0.9489    2.1700   49.9300 C.ar    1  ZINC000866717058    0.0000
     15 C15         0.0966    2.6241   50.7472 C.ar    1  ZINC000866717058   -0.2300
     16 C16         1.4923    2.2374   50.4621 C.2     1  ZINC000866717058    0.5800
     17 O17         2.3223    3.0919   50.2186 O.2     1  ZINC000866717058   -0.5200
     18 N18         1.8467    0.9370   50.4715 N.am    1  ZINC000866717058   -0.7400
     19 C19         3.2316    0.5532   50.1868 C.3     1  ZINC000866717058    0.1400
     20 C20         3.5858    0.9493   48.7520 C.3     1  ZINC000866717058   -0.5700
     21 H21         3.4652    2.0229   48.6077 H       1  ZINC000866717058    0.1500
     22 C22         5.0288    0.5052   48.3989 C.3     1  ZINC000866717058   -0.1100
     23 C23         5.1208    0.4884   46.8630 C.3     1  ZINC000866717058   -0.1200
     24 C24         3.8873   -0.2467   46.3019 C.3     1  ZINC000866717058   -0.5900
     25 S25         2.5688    0.0128   47.5488 S.o2    1  ZINC000866717058    2.3700
     26 O26         2.2054   -1.2379   48.1170 O.2     1  ZINC000866717058   -0.9200
     27 O27         1.5683    0.8635   47.0060 O.2     1  ZINC000866717058   -0.9300
     28 H28         1.3622    4.8167   52.2902 H       1  ZINC000866717058    0.0900
     29 H29         0.5022    4.1799   53.7126 H       1  ZINC000866717058    0.0700
     30 H30         1.6606    3.1496   52.8379 H       1  ZINC000866717058    0.1100
     31 H31        -5.9581    2.8821   53.9836 H       1  ZINC000866717058    0.0900
     32 H32        -4.6787    4.1133   54.1074 H       1  ZINC000866717058    0.0900
     33 H33        -5.9924    4.3109   52.9227 H       1  ZINC000866717058    0.0800
     34 H34        -3.0660    2.2315   49.6271 H       1  ZINC000866717058    0.1600
     35 H35        -0.7505    1.5349   49.0793 H       1  ZINC000866717058    0.1500
     36 H36         1.1848    0.2554   50.6669 H       1  ZINC000866717058    0.4000
     37 H37         3.8999    1.0637   50.8802 H       1  ZINC000866717058    0.1000
     38 H38         3.3412   -0.5249   50.3037 H       1  ZINC000866717058    0.1000
     39 H39         5.7483    1.2144   48.8082 H       1  ZINC000866717058    0.1100
     40 H40         5.2200   -0.4919   48.7952 H       1  ZINC000866717058    0.0900
     41 H41         5.1409    1.5109   46.4858 H       1  ZINC000866717058    0.0900
     42 H42         6.0283   -0.0314   46.5559 H       1  ZINC000866717058    0.1000
     43 H43         3.5913    0.1856   45.3460 H       1  ZINC000866717058    0.1400
     44 H44         4.0996   -1.3097   46.1879 H       1  ZINC000866717058    0.1400
@<TRIPOS>BOND
     1     1     2    1
     2     1    28    1
     3     1    29    1
     4     1    30    1
     5     2    15   ar
     6     2     3   ar
     7     3     4   ar
     8     4     5    1
     9     4    13   ar
    10     5     6    1
    11     6     7    1
    12     6     8    1
    13     6     9    1
    14     8    31    1
    15     8    32    1
    16     8    33    1
    17     9    10    1
    18     9    11    1
    19     9    12    1
    20    13    14   ar
    21    13    34    1
    22    14    15   ar
    23    14    35    1
    24    15    16    1
    25    16    17    2
    26    16    18   am
    27    18    19    1
    28    18    36    1
    29    19    20    1
    30    19    37    1
    31    19    38    1
    32    20    21    1
    33    20    25    1
    34    20    22    1
    35    22    23    1
    36    22    39    1
    37    22    40    1
    38    23    24    1
    39    23    41    1
    40    23    42    1
    41    24    25    1
    42    24    43    1
    43    24    44    1
    44    25    26    2
    45    25    27    2
@<TRIPOS>SUBSTRUCTURE
     1 ZINC000866717058        1 TEMP              0 ****  ****    0 ROOT


##########                                Name:    ZINC000446721380
##########                DOCK_Rotatable_Bonds:                   8
##########                         Heavy_Atoms:                  26
##########                    Molecular_Weight:             419.318
##########                DOCK_Rotatable_Bonds:                   8
##########                       Formal_Charge:           0.0199992
##########                     HBond_Acceptors:                   5
##########                        HBond_Donors:                   2
##########                         Heavy_Atoms:                  26
##########                          Grid_Score:          -29.707506
##########                     Grid_vdw_energy:          -29.086283
##########                      Grid_es_energy:           -0.621224
##########           Internal_energy_repulsive:           13.288302

@<TRIPOS>MOLECULE
ZINC000446721380
 49 51 1 0 0
SMALL
USER_CHARGES


@<TRIPOS>ATOM
      1 C1          1.5283    3.0757   51.1111 C.3     1  ZINC000446721380   -0.1200
      2 C2          0.0476    2.8685   50.9220 C.ar    1  ZINC000446721380   -0.0300
      3 C3         -0.4237    2.2615   49.7728 C.ar    1  ZINC000446721380   -0.1600
      4 C4         -1.7818    2.0700   49.5963 C.ar    1  ZINC000446721380   -0.0500
      5 C5         -2.6710    2.4848   50.5684 C.ar    1  ZINC000446721380   -0.1500
      6 C6         -4.1509    2.2753   50.3756 C.3     1  ZINC000446721380    0.1900
      7 N7         -4.6668    1.4207   51.4478 N.am    1  ZINC000446721380   -0.7300
      8 C8         -5.9683    1.4836   51.7924 C.2     1  ZINC000446721380    0.7100
      9 O9         -6.7144    2.2485   51.2125 O.2     1  ZINC000446721380   -0.5700
     10 N10        -6.4425    0.6986   52.7800 N.am    1  ZINC000446721380   -0.6900
     11 C11        -7.7943    0.7639   53.1379 C.ar    1  ZINC000446721380    0.2000
     12 C12        -8.6768   -0.2158   52.7040 C.ar    1  ZINC000446721380   -0.1200
     13 C13       -10.0103   -0.1488   53.0593 C.ar    1  ZINC000446721380   -0.0800
     14 C14       -10.4665    0.8923   53.8463 C.ar    1  ZINC000446721380   -0.1300
     15 C15        -9.5903    1.8705   54.2802 C.ar    1  ZINC000446721380   -0.0700
     16 C16        -8.2545    1.8064   53.9332 C.ar    1  ZINC000446721380   -0.1300
     17 Br17       -7.0568    3.1437   54.5273 Br      1  ZINC000446721380   -0.0500
     18 C18        -2.2005    3.0942   51.7228 C.ar    1  ZINC000446721380    0.1500
     19 O19        -3.0734    3.5029   52.6809 O.3     1  ZINC000446721380   -0.3100
     20 C20        -2.6455    3.3890   54.0395 C.3     1  ZINC000446721380    0.0700
     21 C21        -2.3039    4.7773   54.5847 C.3     1  ZINC000446721380   -0.1200
     22 H22        -1.4994    5.2272   54.0028 H       1  ZINC000446721380    0.1000
     23 C23        -1.9087    4.6903   56.0790 C.3     1  ZINC000446721380   -0.1500
     24 C24        -2.6010    5.9443   56.6713 C.3     1  ZINC000446721380    0.0500
     25 O25        -3.8449    6.0183   55.9421 O.3     1  ZINC000446721380   -0.3800
     26 C26        -3.5503    5.6833   54.5724 C.3     1  ZINC000446721380    0.0500
     27 C27        -0.8374    3.2802   51.8999 C.ar    1  ZINC000446721380   -0.2100
     28 H28         1.9564    2.2054   51.6085 H       1  ZINC000446721380    0.0800
     29 H29         2.0035    3.2091   50.1392 H       1  ZINC000446721380    0.0700
     30 H30         1.6959    3.9625   51.7223 H       1  ZINC000446721380    0.0700
     31 H31         0.2700    1.9368   49.0114 H       1  ZINC000446721380    0.1300
     32 H32        -2.1474    1.5958   48.6975 H       1  ZINC000446721380    0.1300
     33 H33        -4.6606    3.2384   50.4016 H       1  ZINC000446721380    0.0800
     34 H34        -4.3276    1.7965   49.4125 H       1  ZINC000446721380    0.0800
     35 H35        -4.0718    0.8095   51.9097 H       1  ZINC000446721380    0.4000
     36 H36        -5.8473    0.0882   53.2427 H       1  ZINC000446721380    0.4100
     37 H37        -8.3216   -1.0293   52.0889 H       1  ZINC000446721380    0.1500
     38 H38       -10.6973   -0.9107   52.7215 H       1  ZINC000446721380    0.1300
     39 H39       -11.5094    0.9422   54.1225 H       1  ZINC000446721380    0.1300
     40 H40        -9.9499    2.6829   54.8942 H       1  ZINC000446721380    0.1400
     41 H41        -3.4452    2.9509   54.6368 H       1  ZINC000446721380    0.0700
     42 H42        -1.7629    2.7514   54.0903 H       1  ZINC000446721380    0.0700
     43 H43        -2.2997    3.7795   56.5324 H       1  ZINC000446721380    0.0800
     44 H44        -0.8270    4.7499   56.1994 H       1  ZINC000446721380    0.0900
     45 H45        -2.7880    5.8121   57.7369 H       1  ZINC000446721380    0.1000
     46 H46        -1.9985    6.8352   56.4939 H       1  ZINC000446721380    0.0600
     47 H47        -3.3468    6.5910   54.0043 H       1  ZINC000446721380    0.0600
     48 H48        -4.3923    5.1491   54.1321 H       1  ZINC000446721380    0.0900
     49 H49        -0.4688    3.7543   52.7975 H       1  ZINC000446721380    0.1300
@<TRIPOS>BOND
     1     1     2    1
     2     1    28    1
     3     1    29    1
     4     1    30    1
     5     2    27   ar
     6     2     3   ar
     7     3     4   ar
     8     3    31    1
     9     4     5   ar
    10     4    32    1
    11     5     6    1
    12     5    18   ar
    13     6     7    1
    14     6    33    1
    15     6    34    1
    16     7     8   am
    17     7    35    1
    18     8     9    2
    19     8    10   am
    20    10    11    1
    21    10    36    1
    22    11    16   ar
    23    11    12   ar
    24    12    13   ar
    25    12    37    1
    26    13    14   ar
    27    13    38    1
    28    14    15   ar
    29    14    39    1
    30    15    16   ar
    31    15    40    1
    32    16    17    1
    33    18    19    1
    34    18    27   ar
    35    19    20    1
    36    20    21    1
    37    20    41    1
    38    20    42    1
    39    21    22    1
    40    21    26    1
    41    21    23    1
    42    23    24    1
    43    23    43    1
    44    23    44    1
    45    24    25    1
    46    24    45    1
    47    24    46    1
    48    25    26    1
    49    26    47    1
    50    26    48    1
    51    27    49    1
@<TRIPOS>SUBSTRUCTURE
     1 ZINC000446721380        1 TEMP              0 ****  ****    0 ROOT


##########                                Name:    ZINC000763800048
##########                DOCK_Rotatable_Bonds:                   8
##########                         Heavy_Atoms:                  23
##########                    Molecular_Weight:             329.783
##########                DOCK_Rotatable_Bonds:                   8
##########                       Formal_Charge:           0.0199994
##########                     HBond_Acceptors:                   5
##########                        HBond_Donors:                   1
##########                         Heavy_Atoms:                  23
##########                          Grid_Score:          -29.670330
##########                     Grid_vdw_energy:          -28.479647
##########                      Grid_es_energy:           -1.190682
##########           Internal_energy_repulsive:           11.900856

@<TRIPOS>MOLECULE
ZINC000763800048
 39 40 1 0 0
SMALL
USER_CHARGES


@<TRIPOS>ATOM
      1 C1         -9.9628    0.0246   55.7003 C.3     1  ZINC000763800048    0.0400
      2 O2         -9.7835   -0.6049   54.4041 O.3     1  ZINC000763800048   -0.3600
      3 C3         -8.8880   -0.0471   53.5743 C.2     1  ZINC000763800048    0.4600
      4 O4         -8.6406   -0.5691   52.5131 O.2     1  ZINC000763800048   -0.4900
      5 C5         -8.1910    1.2301   53.9666 C.3     1  ZINC000763800048   -0.0700
      6 C6         -7.8415    2.0127   52.7270 C.ar    1  ZINC000763800048   -0.0600
      7 C7         -8.7176    2.9664   52.2425 C.ar    1  ZINC000763800048   -0.1200
      8 C8         -8.4007    3.6868   51.1052 C.ar    1  ZINC000763800048   -0.1000
      9 C9         -7.2073    3.4560   50.4500 C.ar    1  ZINC000763800048   -0.1100
     10 C10        -6.3246    2.4989   50.9345 C.ar    1  ZINC000763800048    0.1500
     11 N11        -5.1153    2.2628   50.2736 N.am    1  ZINC000763800048   -0.6700
     12 C12        -3.9580    2.6978   50.8100 C.2     1  ZINC000763800048    0.5500
     13 O13        -3.9655    3.2963   51.8698 O.2     1  ZINC000763800048   -0.5200
     14 C14        -2.6923    2.4507   50.1182 C.2     1  ZINC000763800048   -0.2100
     15 C15        -1.5356    2.4398   50.8118 C.2     1  ZINC000763800048   -0.0100
     16 C16        -0.2631    2.1896   50.1165 C.ar    1  ZINC000763800048   -0.0800
     17 C17        -0.2372    1.4043   48.9594 C.ar    1  ZINC000763800048   -0.0900
     18 C18         0.9584    1.1741   48.3134 C.ar    1  ZINC000763800048   -0.1100
     19 C19         2.1328    1.7181   48.8079 C.ar    1  ZINC000763800048   -0.0200
     20 Cl20        3.6340    1.4223   47.9879 Cl      1  ZINC000763800048   -0.0600
     21 C21         2.1147    2.4973   49.9533 C.ar    1  ZINC000763800048   -0.1100
     22 C22         0.9255    2.7406   50.6064 C.ar    1  ZINC000763800048   -0.0800
     23 C23        -6.6437    1.7807   52.0794 C.ar    1  ZINC000763800048   -0.1300
     24 H24       -10.7125   -0.5243   56.2702 H       1  ZINC000763800048    0.1000
     25 H25        -9.0170    0.0166   56.2420 H       1  ZINC000763800048    0.0600
     26 H26       -10.2935    1.0538   55.5616 H       1  ZINC000763800048    0.0600
     27 H27        -8.8510    1.8252   54.5978 H       1  ZINC000763800048    0.1200
     28 H28        -7.2797    0.9930   54.5154 H       1  ZINC000763800048    0.1200
     29 H29        -9.6516    3.1488   52.7529 H       1  ZINC000763800048    0.1200
     30 H30        -9.0875    4.4305   50.7289 H       1  ZINC000763800048    0.1300
     31 H31        -6.9605    4.0187   49.5618 H       1  ZINC000763800048    0.1400
     32 H32        -5.1093    1.7859   49.4289 H       1  ZINC000763800048    0.4100
     33 H33        -2.6844    2.2770   49.0524 H       1  ZINC000763800048    0.1300
     34 H34        -1.5433    2.6148   51.8775 H       1  ZINC000763800048    0.1400
     35 H35        -1.1518    0.9790   48.5732 H       1  ZINC000763800048    0.1400
     36 H36         0.9798    0.5679   47.4198 H       1  ZINC000763800048    0.1400
     37 H37         3.0339    2.9181   50.3331 H       1  ZINC000763800048    0.1400
     38 H38         0.9128    3.3485   51.4990 H       1  ZINC000763800048    0.1400
     39 H39        -5.9594    1.0362   52.4589 H       1  ZINC000763800048    0.1300
@<TRIPOS>BOND
     1     1     2    1
     2     1    24    1
     3     1    25    1
     4     1    26    1
     5     2     3    1
     6     3     4    2
     7     3     5    1
     8     5     6    1
     9     5    27    1
    10     5    28    1
    11     6    23   ar
    12     6     7   ar
    13     7     8   ar
    14     7    29    1
    15     8     9   ar
    16     8    30    1
    17     9    10   ar
    18     9    31    1
    19    10    11    1
    20    10    23   ar
    21    11    12   am
    22    11    32    1
    23    12    13    2
    24    12    14    1
    25    14    15    2
    26    14    33    1
    27    15    16    1
    28    15    34    1
    29    16    22   ar
    30    16    17   ar
    31    17    18   ar
    32    17    35    1
    33    18    19   ar
    34    18    36    1
    35    19    20    1
    36    19    21   ar
    37    21    22   ar
    38    21    37    1
    39    22    38    1
    40    23    39    1
@<TRIPOS>SUBSTRUCTURE
     1 ZINC000763800048        1 TEMP              0 ****  ****    0 ROOT


##########                                Name:    ZINC000266467123
##########                DOCK_Rotatable_Bonds:                   9
##########                         Heavy_Atoms:                  25
##########                    Molecular_Weight:             337.421
##########                DOCK_Rotatable_Bonds:                   9
##########                       Formal_Charge:                0.02
##########                     HBond_Acceptors:                   5
##########                        HBond_Donors:                   3
##########                         Heavy_Atoms:                  25
##########                          Grid_Score:          -29.664843
##########                     Grid_vdw_energy:          -28.430372
##########                      Grid_es_energy:           -1.234470
##########           Internal_energy_repulsive:            9.899779

@<TRIPOS>MOLECULE
ZINC000266467123
 48 50 1 0 0
SMALL
USER_CHARGES


@<TRIPOS>ATOM
      1 C1         -2.9143    1.9569   50.4115 C.3     1  <0>        -0.1600
      2 C2         -3.6730    3.0140   51.2165 C.3     1  <0>         0.1500
      3 H3         -3.2465    3.9971   51.0179 H       1  <0>         0.1200
      4 N4         -3.5607    2.7127   52.6458 N.am    1  <0>        -0.7300
      5 C5         -3.3515    3.7081   53.5301 C.2     1  <0>         0.7100
      6 O6         -3.2572    4.8563   53.1416 O.2     1  <0>        -0.5900
      7 N7         -3.2466    3.4307   54.8447 N.am    1  <0>        -0.7100
      8 C8         -3.0209    4.5129   55.8060 C.3     1  <0>         0.1100
      9 H9         -3.7607    5.3133   55.7951 H       1  <0>         0.1400
     10 C10        -1.5713    4.8949   56.1122 C.3     1  <0>        -0.1900
     11 C11        -2.4014    4.1419   57.1549 C.3     1  <0>        -0.1500
     12 H12        -2.7334    4.6984   58.0314 H       1  <0>         0.1200
     13 C13        -2.0642    2.6693   57.3969 C.3     1  <0>        -0.0500
     14 C14        -0.6749    2.5598   57.9708 C.ar    1  <0>        -0.0800
     15 C15        -0.4759    2.7032   59.3312 C.ar    1  <0>        -0.1100
     16 C16         0.7984    2.6027   59.8575 C.ar    1  <0>        -0.1200
     17 C17         1.8734    2.3585   59.0237 C.ar    1  <0>        -0.1200
     18 C18         1.6742    2.2141   57.6633 C.ar    1  <0>        -0.1200
     19 C19         0.3994    2.3103   57.1374 C.ar    1  <0>        -0.1200
     20 C20        -5.1252    3.0054   50.8139 C.2     1  <0>         0.5100
     21 O21        -5.5619    2.0976   50.1386 O.2     1  <0>        -0.5100
     22 N22        -5.9385    4.0067   51.2042 N.am    1  <0>        -0.6700
     23 C23        -7.2869    3.9988   50.8303 C.ar    1  <0>         0.1400
     24 C24        -8.2429    3.4663   51.6854 C.ar    1  <0>        -0.1400
     25 C25        -9.5731    3.4600   51.3134 C.ar    1  <0>        -0.1000
     26 C26        -9.9531    3.9827   50.0909 C.ar    1  <0>        -0.1300
     27 C27        -9.0035    4.5132   49.2371 C.ar    1  <0>        -0.1000
     28 C28        -7.6726    4.5286   49.6060 C.ar    1  <0>        -0.1200
     29 H29        -2.9977    2.1810   49.3481 H       1  <0>         0.0700
     30 H30        -1.8639    1.9630   50.7027 H       1  <0>         0.0800
     31 H31        -3.3407    0.9737   50.6102 H       1  <0>         0.0700
     32 H32        -3.6372    1.7967   52.9559 H       1  <0>         0.4100
     33 H33        -3.3206    2.5144   55.1545 H       1  <0>         0.4000
     34 H34        -0.7856    4.3410   55.5985 H       1  <0>         0.1000
     35 H35        -1.3576    5.9466   56.3032 H       1  <0>         0.1000
     36 H36        -2.7815    2.2428   58.0980 H       1  <0>         0.0800
     37 H37        -2.1113    2.1259   56.4533 H       1  <0>         0.0700
     38 H38        -1.3158    2.8941   59.9826 H       1  <0>         0.1200
     39 H39         0.9539    2.7156   60.9203 H       1  <0>         0.1200
     40 H40         2.8691    2.2807   59.4348 H       1  <0>         0.1200
     41 H41         2.5142    2.0236   57.0118 H       1  <0>         0.1200
     42 H42         0.2437    2.1975   56.0747 H       1  <0>         0.1200
     43 H43        -5.5892    4.7327   51.7443 H       1  <0>         0.4100
     44 H44        -7.9466    3.0574   52.6400 H       1  <0>         0.1300
     45 H45       -10.3170    3.0461   51.9779 H       1  <0>         0.1300
     46 H46       -10.9938    3.9763   49.8021 H       1  <0>         0.1200
     47 H47        -9.3034    4.9199   48.2826 H       1  <0>         0.1300
     48 H48        -6.9314    4.9429   48.9387 H       1  <0>         0.1400
@<TRIPOS>BOND
     1     1     2    1
     2     1    29    1
     3     1    30    1
     4     1    31    1
     5     2     3    1
     6     2     4    1
     7     2    20    1
     8     4     5   am
     9     4    32    1
    10     5     6    2
    11     5     7   am
    12     7     8    1
    13     7    33    1
    14     8     9    1
    15     8    11    1
    16     8    10    1
    17    10    11    1
    18    10    34    1
    19    10    35    1
    20    11    12    1
    21    11    13    1
    22    13    14    1
    23    13    36    1
    24    13    37    1
    25    14    19   ar
    26    14    15   ar
    27    15    16   ar
    28    15    38    1
    29    16    17   ar
    30    16    39    1
    31    17    18   ar
    32    17    40    1
    33    18    19   ar
    34    18    41    1
    35    19    42    1
    36    20    21    2
    37    20    22   am
    38    22    23    1
    39    22    43    1
    40    23    28   ar
    41    23    24   ar
    42    24    25   ar
    43    24    44    1
    44    25    26   ar
    45    25    45    1
    46    26    27   ar
    47    26    46    1
    48    27    28   ar
    49    27    47    1
    50    28    48    1
@<TRIPOS>SUBSTRUCTURE
     1 <0>         1 TEMP              0 ****  ****    0 ROOT


##########                                Name:    ZINC001067316277
##########                DOCK_Rotatable_Bonds:                   5
##########                         Heavy_Atoms:                  24
##########                    Molecular_Weight:             345.469
##########                DOCK_Rotatable_Bonds:                   5
##########                       Formal_Charge:          -0.0200007
##########                     HBond_Acceptors:                   7
##########                        HBond_Donors:                   2
##########                         Heavy_Atoms:                  24
##########                          Grid_Score:          -29.659348
##########                     Grid_vdw_energy:          -30.287971
##########                      Grid_es_energy:            0.628624
##########           Internal_energy_repulsive:           16.432465

@<TRIPOS>MOLECULE
ZINC001067316277
 47 49 1 0 0
SMALL
USER_CHARGES


@<TRIPOS>ATOM
      1 C1          2.0685    1.6138   48.5677 C.3     1  ZINC001067316277   -0.1400
      2 S2          0.3062    1.3662   48.2378 S.3     1  ZINC001067316277   -0.0400
      3 C3         -0.3863    2.2453   49.5987 C.ar    1  ZINC001067316277    0.1800
      4 C4          0.4358    2.9618   50.4720 C.ar    1  ZINC001067316277   -0.2400
      5 C5         -0.1507    3.6358   51.5249 C.ar    1  ZINC001067316277    0.1900
      6 N6         -1.4663    3.5842   51.6756 N.ar    1  ZINC001067316277   -0.5600
      7 C7         -2.2224    2.8968   50.8320 C.ar    1  ZINC001067316277    0.5100
      8 N8         -3.5927    2.8678   51.0238 N.3     1  ZINC001067316277   -0.4600
      9 C9         -4.1538    1.5735   50.6161 C.3     1  ZINC001067316277    0.0700
     10 C10        -5.6807    1.6276   50.7043 C.3     1  ZINC001067316277   -0.1300
     11 C11        -6.0928    1.9534   52.1425 C.3     1  ZINC001067316277    0.1600
     12 H12        -5.7504    1.1608   52.8078 H       1  ZINC001067316277    0.0900
     13 N13        -7.5517    2.0624   52.2210 N.am    1  ZINC001067316277   -0.7200
     14 C14        -8.2870    1.0009   52.6070 C.2     1  ZINC001067316277    0.5900
     15 O15        -7.7392   -0.0486   52.8889 O.2     1  ZINC001067316277   -0.5300
     16 C16        -9.7474    1.1105   52.6873 C.2     1  ZINC001067316277   -0.0600
     17 C17       -10.6183    0.1194   53.0874 C.2     1  ZINC001067316277   -0.1000
     18 C18       -11.9090    0.6522   53.0136 C.2     1  ZINC001067316277   -0.2100
     19 C19       -11.8064    1.9311   52.5793 C.2     1  ZINC001067316277    0.0300
     20 N20       -10.4977    2.2236   52.3826 N.pl3   1  ZINC001067316277   -0.5400
     21 C21        -5.4559    3.2820   52.5590 C.3     1  ZINC001067316277   -0.0700
     22 C22        -5.9789    4.4035   51.6591 C.3     1  ZINC001067316277   -0.1400
     23 C23        -5.8146    3.5861   54.0150 C.3     1  ZINC001067316277   -0.1400
     24 C24        -3.9356    3.1800   52.4171 C.3     1  ZINC001067316277    0.0800
     25 N25        -1.7001    2.2414   49.8066 N.ar    1  ZINC001067316277   -0.5400
     26 H26         2.2921    2.6806   48.5659 H       1  ZINC001067316277    0.0900
     27 H27         2.3188    1.1918   49.5412 H       1  ZINC001067316277    0.0900
     28 H28         2.6561    1.1180   47.7950 H       1  ZINC001067316277    0.1000
     29 H29         1.5058    2.9875   50.3272 H       1  ZINC001067316277    0.1500
     30 H30         0.4563    4.1988   52.2184 H       1  ZINC001067316277    0.1700
     31 H31        -3.8568    1.3559   49.5902 H       1  ZINC001067316277    0.1000
     32 H32        -3.7794    0.7912   51.2762 H       1  ZINC001067316277    0.0500
     33 H33        -6.0567    2.4005   50.0339 H       1  ZINC001067316277    0.0800
     34 H34        -6.0962    0.6618   50.4165 H       1  ZINC001067316277    0.0800
     35 H35        -7.9884    2.8985   51.9950 H       1  ZINC001067316277    0.3900
     36 H36       -10.3535   -0.8802   53.3988 H       1  ZINC001067316277    0.1500
     37 H37       -12.8252    0.1357   53.2590 H       1  ZINC001067316277    0.1500
     38 H38       -12.6324    2.6084   52.4195 H       1  ZINC001067316277    0.1700
     39 H39       -10.1484    3.0740   52.0731 H       1  ZINC001067316277    0.4100
     40 H40        -7.0622    4.4734   51.7579 H       1  ZINC001067316277    0.0500
     41 H41        -5.5252    5.3490   51.9562 H       1  ZINC001067316277    0.0600
     42 H42        -5.7219    4.1870   50.6223 H       1  ZINC001067316277    0.0700
     43 H43        -5.4406    2.7876   54.6557 H       1  ZINC001067316277    0.0600
     44 H44        -5.3610    4.5321   54.3109 H       1  ZINC001067316277    0.0600
     45 H45        -6.8978    3.6555   54.1154 H       1  ZINC001067316277    0.0600
     46 H46        -3.5622    2.3901   53.0688 H       1  ZINC001067316277    0.0600
     47 H47        -3.4800    4.1292   52.6994 H       1  ZINC001067316277    0.1000
@<TRIPOS>BOND
     1     1     2    1
     2     1    26    1
     3     1    27    1
     4     1    28    1
     5     2     3    1
     6     3    25   ar
     7     3     4   ar
     8     4     5   ar
     9     4    29    1
    10     5     6   ar
    11     5    30    1
    12     6     7   ar
    13     7     8    1
    14     7    25   ar
    15     8    24    1
    16     8     9    1
    17     9    10    1
    18     9    31    1
    19     9    32    1
    20    10    11    1
    21    10    33    1
    22    10    34    1
    23    11    12    1
    24    11    13    1
    25    11    21    1
    26    13    14   am
    27    13    35    1
    28    14    15    2
    29    14    16    1
    30    16    20    1
    31    16    17    2
    32    17    18    1
    33    17    36    1
    34    18    19    2
    35    18    37    1
    36    19    20    1
    37    19    38    1
    38    20    39    1
    39    21    22    1
    40    21    23    1
    41    21    24    1
    42    22    40    1
    43    22    41    1
    44    22    42    1
    45    23    43    1
    46    23    44    1
    47    23    45    1
    48    24    46    1
    49    24    47    1
@<TRIPOS>SUBSTRUCTURE
     1 ZINC001067316277        1 TEMP              0 ****  ****    0 ROOT


##########                                Name:    ZINC000536173632
##########                DOCK_Rotatable_Bonds:                   7
##########                         Heavy_Atoms:                  29
##########                    Molecular_Weight:             407.389
##########                DOCK_Rotatable_Bonds:                   7
##########                       Formal_Charge:        -2.98023e-07
##########                     HBond_Acceptors:                   8
##########                        HBond_Donors:                   0
##########                         Heavy_Atoms:                  29
##########                          Grid_Score:          -29.629135
##########                     Grid_vdw_energy:          -29.016689
##########                      Grid_es_energy:           -0.612447
##########           Internal_energy_repulsive:           15.232458

@<TRIPOS>MOLECULE
ZINC000536173632
 49 51 1 0 0
SMALL
USER_CHARGES


@<TRIPOS>ATOM
      1 C1         -6.3460    2.1745   65.4740 C.3     1  ZINC000536173632    0.0400
      2 O2         -7.0775    2.0366   64.2272 O.3     1  ZINC000536173632   -0.3500
      3 C3         -7.9219    0.9921   64.1259 C.2     1  ZINC000536173632    0.5100
      4 O4         -8.0167    0.1969   65.0392 O.2     1  ZINC000536173632   -0.5000
      5 C5         -8.7326    0.8134   62.9039 C.ar    1  ZINC000536173632   -0.1300
      6 C6         -9.6702   -0.2182   62.8291 C.ar    1  ZINC000536173632   -0.0600
      7 C7        -10.4240   -0.3794   61.6849 C.ar    1  ZINC000536173632   -0.1300
      8 C8        -10.2520    0.4781   60.6130 C.ar    1  ZINC000536173632   -0.0700
      9 C9         -9.3243    1.5028   60.6803 C.ar    1  ZINC000536173632   -0.0800
     10 C10        -9.1440    2.4320   59.5076 C.3     1  ZINC000536173632   -0.1000
     11 C11        -8.5177    1.6793   58.3621 C.2     1  ZINC000536173632    0.5200
     12 O12        -8.4238    0.4710   58.4095 O.2     1  ZINC000536173632   -0.5200
     13 N13        -8.0619    2.3489   57.2849 N.am    1  ZINC000536173632   -0.6200
     14 C14        -8.1648    3.8146   57.2046 C.3     1  ZINC000536173632    0.0700
     15 C15        -8.8020    4.1816   55.8595 C.3     1  ZINC000536173632    0.0500
     16 O16        -8.0818    3.5372   54.8061 O.3     1  ZINC000536173632   -0.3700
     17 C17        -8.1184    2.1091   54.8604 C.3     1  ZINC000536173632    0.1200
     18 H18        -9.1543    1.7705   54.8435 H       1  ZINC000536173632    0.0800
     19 C19        -7.3836    1.5412   53.6735 C.ar    1  ZINC000536173632   -0.0900
     20 C20        -7.7778    0.3332   53.1300 C.ar    1  ZINC000536173632   -0.0600
     21 C21        -7.1037   -0.1878   52.0411 C.ar    1  ZINC000536173632   -0.1200
     22 C22        -6.0358    0.4997   51.4959 C.ar    1  ZINC000536173632   -0.0700
     23 C23        -5.6420    1.7086   52.0390 C.ar    1  ZINC000536173632   -0.1800
     24 C24        -4.4773    2.4579   51.4449 C.3     1  ZINC000536173632    0.5100
     25 F25        -4.9481    3.5796   50.7540 F       1  ZINC000536173632   -0.1800
     26 F26        -3.6158    2.8681   52.4680 F       1  ZINC000536173632   -0.1800
     27 F27        -3.7868    1.6218   50.5611 F       1  ZINC000536173632   -0.1800
     28 C28        -6.3186    2.2314   53.1248 C.ar    1  ZINC000536173632   -0.0500
     29 C29        -7.4411    1.6364   56.1569 C.3     1  ZINC000536173632    0.0900
     30 C30        -8.5685    1.6791   61.8205 C.ar    1  ZINC000536173632   -0.0400
     31 H31        -7.0506    2.2865   66.2981 H       1  ZINC000536173632    0.0600
     32 H32        -5.7347    1.2868   65.6367 H       1  ZINC000536173632    0.0600
     33 H33        -5.7038    3.0537   65.4231 H       1  ZINC000536173632    0.1000
     34 H34        -9.8050   -0.8887   63.6650 H       1  ZINC000536173632    0.1400
     35 H35       -11.1498   -1.1771   61.6258 H       1  ZINC000536173632    0.1400
     36 H36       -10.8442    0.3470   59.7194 H       1  ZINC000536173632    0.1300
     37 H37       -10.1146    2.8208   59.1995 H       1  ZINC000536173632    0.1100
     38 H38        -8.4959    3.2595   59.7962 H       1  ZINC000536173632    0.1100
     39 H39        -8.7881    4.1840   58.0190 H       1  ZINC000536173632    0.1000
     40 H40        -7.1709    4.2567   57.2728 H       1  ZINC000536173632    0.0800
     41 H41        -9.8404    3.8506   55.8462 H       1  ZINC000536173632    0.0600
     42 H42        -8.7616    5.2620   55.7203 H       1  ZINC000536173632    0.1100
     43 H43        -8.6123   -0.2040   53.5560 H       1  ZINC000536173632    0.1400
     44 H44        -7.4113   -1.1321   51.6168 H       1  ZINC000536173632    0.1400
     45 H45        -5.5087    0.0924   50.6458 H       1  ZINC000536173632    0.1400
     46 H46        -6.0111    3.1758   53.5492 H       1  ZINC000536173632    0.1400
     47 H47        -6.3750    1.8597   56.1166 H       1  ZINC000536173632    0.0800
     48 H48        -7.5875    0.5630   56.2773 H       1  ZINC000536173632    0.1100
     49 H49        -7.8452    2.4794   61.8720 H       1  ZINC000536173632    0.1400
@<TRIPOS>BOND
     1     1     2    1
     2     1    31    1
     3     1    32    1
     4     1    33    1
     5     2     3    1
     6     3     4    2
     7     3     5    1
     8     5    30   ar
     9     5     6   ar
    10     6     7   ar
    11     6    34    1
    12     7     8   ar
    13     7    35    1
    14     8     9   ar
    15     8    36    1
    16     9    10    1
    17     9    30   ar
    18    10    11    1
    19    10    37    1
    20    10    38    1
    21    11    12    2
    22    11    13   am
    23    13    29    1
    24    13    14    1
    25    14    15    1
    26    14    39    1
    27    14    40    1
    28    15    16    1
    29    15    41    1
    30    15    42    1
    31    16    17    1
    32    17    18    1
    33    17    19    1
    34    17    29    1
    35    19    28   ar
    36    19    20   ar
    37    20    21   ar
    38    20    43    1
    39    21    22   ar
    40    21    44    1
    41    22    23   ar
    42    22    45    1
    43    23    24    1
    44    23    28   ar
    45    24    25    1
    46    24    26    1
    47    24    27    1
    48    28    46    1
    49    29    47    1
    50    29    48    1
    51    30    49    1
@<TRIPOS>SUBSTRUCTURE
     1 ZINC000536173632        1 TEMP              0 ****  ****    0 ROOT


##########                                Name:    ZINC000301324012
##########                DOCK_Rotatable_Bonds:                   7
##########                         Heavy_Atoms:                  28
##########                    Molecular_Weight:               415.9
##########                DOCK_Rotatable_Bonds:                   7
##########                       Formal_Charge:          -0.0100002
##########                     HBond_Acceptors:                   8
##########                        HBond_Donors:                   2
##########                         Heavy_Atoms:                  28
##########                          Grid_Score:          -29.619963
##########                     Grid_vdw_energy:          -30.427092
##########                      Grid_es_energy:            0.807129
##########           Internal_energy_repulsive:           13.988211

@<TRIPOS>MOLECULE
ZINC000301324012
 46 48 1 0 0
SMALL
USER_CHARGES


@<TRIPOS>ATOM
      1 C1         -7.9883    3.8116   53.2966 C.3     1  ZINC000301324012   -0.1600
      2 C2         -7.2388    2.6465   53.9462 C.3     1  ZINC000301324012    0.2000
      3 H3         -6.3156    3.0134   54.3947 H       1  ZINC000301324012    0.1100
      4 N4         -8.0792    2.0428   54.9832 N.am    1  ZINC000301324012   -0.7100
      5 C5         -7.5978    1.8818   56.2317 C.2     1  ZINC000301324012    0.5500
      6 O6         -6.4668    2.2390   56.4977 O.2     1  ZINC000301324012   -0.5300
      7 C7         -8.4454    1.2709   57.2777 C.ar    1  ZINC000301324012   -0.0700
      8 C8         -9.8110    1.0875   57.0548 C.ar    1  ZINC000301324012   -0.1100
      9 C9        -10.5962    0.5164   58.0348 C.ar    1  ZINC000301324012   -0.0200
     10 C10       -10.0328    0.1261   59.2368 C.ar    1  ZINC000301324012   -0.6600
     11 S11       -11.0430   -0.6022   60.4834 S.o2    1  ZINC000301324012    2.6900
     12 O12       -10.1789   -0.9169   61.5668 O.2     1  ZINC000301324012   -0.9400
     13 O13       -12.1827    0.2358   60.6164 O.2     1  ZINC000301324012   -0.9400
     14 N14       -11.5916   -2.0468   59.8880 N.am    1  ZINC000301324012   -1.0500
     15 C15       -12.3623   -2.0746   58.7226 C.ar    1  ZINC000301324012    0.1600
     16 C16       -13.7194   -1.7865   58.7787 C.ar    1  ZINC000301324012   -0.1600
     17 C17       -14.4786   -1.8148   57.6248 C.ar    1  ZINC000301324012   -0.0800
     18 C18       -13.8890   -2.1301   56.4146 C.ar    1  ZINC000301324012   -0.1200
     19 C19       -12.5374   -2.4177   56.3542 C.ar    1  ZINC000301324012   -0.0900
     20 C20       -11.7709   -2.3853   57.5033 C.ar    1  ZINC000301324012   -0.0600
     21 Cl21      -10.0745   -2.7464   57.4270 Cl      1  ZINC000301324012   -0.0600
     22 C22        -8.6797    0.3046   59.4639 C.ar    1  ZINC000301324012   -0.0200
     23 C23        -7.8824    0.8696   58.4902 C.ar    1  ZINC000301324012   -0.0800
     24 C24        -6.9125    1.6131   52.8991 C.ar    1  ZINC000301324012    0.1200
     25 C25        -6.1768    1.9760   51.7872 C.ar    1  ZINC000301324012   -0.1600
     26 C26        -5.8816    1.0173   50.8298 C.ar    1  ZINC000301324012   -0.0700
     27 C27        -6.3396   -0.2760   51.0280 C.ar    1  ZINC000301324012   -0.1700
     28 C28        -7.0701   -0.5649   52.1653 C.ar    1  ZINC000301324012    0.1100
     29 N29        -7.3278    0.3713   53.0574 N.ar    1  ZINC000301324012   -0.4900
     30 H30        -7.3630    4.2609   52.5251 H       1  ZINC000301324012    0.0700
     31 H31        -8.9115    3.4448   52.8482 H       1  ZINC000301324012    0.0600
     32 H32        -8.2243    4.5592   54.0540 H       1  ZINC000301324012    0.0700
     33 H33        -8.9822    1.7588   54.7712 H       1  ZINC000301324012    0.4100
     34 H34       -10.2520    1.3925   56.1173 H       1  ZINC000301324012    0.1400
     35 H35       -11.6530    0.3739   57.8636 H       1  ZINC000301324012    0.1500
     36 H36       -11.3780   -2.8735   60.3482 H       1  ZINC000301324012    0.4300
     37 H37       -14.1811   -1.5407   59.7236 H       1  ZINC000301324012    0.1700
     38 H38       -15.5342   -1.5907   57.6682 H       1  ZINC000301324012    0.1400
     39 H39       -14.4853   -2.1521   55.5144 H       1  ZINC000301324012    0.1400
     40 H40       -12.0801   -2.6636   55.4073 H       1  ZINC000301324012    0.1400
     41 H41        -8.2461   -0.0027   60.4042 H       1  ZINC000301324012    0.1500
     42 H42        -6.8262    1.0081   58.6686 H       1  ZINC000301324012    0.1500
     43 H43        -5.8364    2.9937   51.6651 H       1  ZINC000301324012    0.1400
     44 H44        -5.3087    1.2723   49.9504 H       1  ZINC000301324012    0.1400
     45 H45        -6.1286   -1.0480   50.3028 H       1  ZINC000301324012    0.1400
     46 H46        -7.4308   -1.5700   52.3270 H       1  ZINC000301324012    0.1600
@<TRIPOS>BOND
     1     1     2    1
     2     1    30    1
     3     1    31    1
     4     1    32    1
     5     2     3    1
     6     2     4    1
     7     2    24    1
     8     4     5   am
     9     4    33    1
    10     5     6    2
    11     5     7    1
    12     7    23   ar
    13     7     8   ar
    14     8     9   ar
    15     8    34    1
    16     9    10   ar
    17     9    35    1
    18    10    11    1
    19    10    22   ar
    20    11    12    2
    21    11    13    2
    22    11    14   am
    23    14    15    1
    24    14    36    1
    25    15    20   ar
    26    15    16   ar
    27    16    17   ar
    28    16    37    1
    29    17    18   ar
    30    17    38    1
    31    18    19   ar
    32    18    39    1
    33    19    20   ar
    34    19    40    1
    35    20    21    1
    36    22    23   ar
    37    22    41    1
    38    23    42    1
    39    24    29   ar
    40    24    25   ar
    41    25    26   ar
    42    25    43    1
    43    26    27   ar
    44    26    44    1
    45    27    28   ar
    46    27    45    1
    47    28    29   ar
    48    28    46    1
@<TRIPOS>SUBSTRUCTURE
     1 ZINC000301324012        1 TEMP              0 ****  ****    0 ROOT


##########                                Name:    ZINC000469459940
##########                DOCK_Rotatable_Bonds:                   7
##########                         Heavy_Atoms:                  24
##########                    Molecular_Weight:             414.295
##########                DOCK_Rotatable_Bonds:                   7
##########                       Formal_Charge:          -0.0200002
##########                     HBond_Acceptors:                   6
##########                        HBond_Donors:                   1
##########                         Heavy_Atoms:                  24
##########                          Grid_Score:          -29.613979
##########                     Grid_vdw_energy:          -29.128275
##########                      Grid_es_energy:           -0.485705
##########           Internal_energy_repulsive:            9.599834

@<TRIPOS>MOLECULE
ZINC000469459940
 41 42 1 0 0
SMALL
USER_CHARGES


@<TRIPOS>ATOM
      1 C1          4.1978    1.2374   44.3037 C.3     1  ZINC000469459940   -0.1600
      2 C2          4.1111   -0.1424   44.9590 C.3     1  ZINC000469459940   -0.1200
      3 C3          4.3916   -0.0138   46.4576 C.3     1  ZINC000469459940   -0.1200
      4 C4          3.0767    0.2192   47.2044 C.3     1  ZINC000469459940   -0.6000
      5 S5          3.1512    1.8065   48.0791 S.o2    1  ZINC000469459940    2.4900
      6 O6          4.0897    1.7455   49.1443 O.2     1  ZINC000469459940   -0.9300
      7 O7          3.1619    2.8855   47.1544 O.2     1  ZINC000469459940   -0.9300
      8 C8          1.5890    1.9391   48.8834 C.ar    1  ZINC000469459940   -0.6400
      9 C9          0.4352    1.5777   48.2107 C.ar    1  ZINC000469459940   -0.0300
     10 C10        -0.7911    1.6794   48.8344 C.ar    1  ZINC000469459940   -0.0800
     11 C11        -0.8661    2.1479   50.1472 C.ar    1  ZINC000469459940   -0.0900
     12 C12        -2.1766    2.2590   50.8220 C.2     1  ZINC000469459940    0.5600
     13 O13        -2.2418    2.6953   51.9547 O.2     1  ZINC000469459940   -0.5000
     14 N14        -3.2990    1.8765   50.1814 N.am    1  ZINC000469459940   -0.6700
     15 C15        -4.5391    1.9817   50.8200 C.ar    1  ZINC000469459940    0.1900
     16 C16        -5.0046    3.2227   51.2346 C.ar    1  ZINC000469459940   -0.1500
     17 C17        -6.2294    3.3251   51.8652 C.ar    1  ZINC000469459940   -0.0400
     18 C18        -6.9930    2.1931   52.0847 C.ar    1  ZINC000469459940   -0.1500
     19 Br19       -8.6692    2.3378   52.9483 Br      1  ZINC000469459940   -0.0200
     20 C20        -6.5319    0.9528   51.6724 C.ar    1  ZINC000469459940    0.1500
     21 F21        -7.2795   -0.1516   51.8880 F       1  ZINC000469459940   -0.1200
     22 C22        -5.3090    0.8462   51.0352 C.ar    1  ZINC000469459940   -0.1500
     23 C23         0.3018    2.5104   50.8203 C.ar    1  ZINC000469459940   -0.1100
     24 C24         1.5222    2.3989   50.1867 C.ar    1  ZINC000469459940   -0.0300
     25 H25         3.4607    1.9013   44.7557 H       1  ZINC000469459940    0.0600
     26 H26         5.1964    1.6483   44.4526 H       1  ZINC000469459940    0.0600
     27 H27         3.9980    1.1459   43.2361 H       1  ZINC000469459940    0.0600
     28 H28         3.1126   -0.5532   44.8102 H       1  ZINC000469459940    0.0700
     29 H29         4.8482   -0.8061   44.5071 H       1  ZINC000469459940    0.0700
     30 H30         4.8578   -0.9301   46.8200 H       1  ZINC000469459940    0.0800
     31 H31         5.0620    0.8280   46.6309 H       1  ZINC000469459940    0.0800
     32 H32         2.2521    0.2353   46.4919 H       1  ZINC000469459940    0.1400
     33 H33         2.9199   -0.5848   47.9235 H       1  ZINC000469459940    0.1400
     34 H34         0.4947    1.2154   47.1950 H       1  ZINC000469459940    0.1500
     35 H35        -1.6910    1.3977   48.3080 H       1  ZINC000469459940    0.1500
     36 H36        -3.2469    1.5283   49.2776 H       1  ZINC000469459940    0.4200
     37 H37        -4.4091    4.1074   51.0644 H       1  ZINC000469459940    0.1500
     38 H38        -6.5911    4.2904   52.1874 H       1  ZINC000469459940    0.1500
     39 H39        -4.9493   -0.1200   50.7136 H       1  ZINC000469459940    0.1600
     40 H40         0.2506    2.8739   51.8359 H       1  ZINC000469459940    0.1400
     41 H41         2.4266    2.6791   50.7062 H       1  ZINC000469459940    0.1500
@<TRIPOS>BOND
     1     1     2    1
     2     1    25    1
     3     1    26    1
     4     1    27    1
     5     2     3    1
     6     2    28    1
     7     2    29    1
     8     3     4    1
     9     3    30    1
    10     3    31    1
    11     4     5    1
    12     4    32    1
    13     4    33    1
    14     5     6    2
    15     5     7    2
    16     5     8    1
    17     8    24   ar
    18     8     9   ar
    19     9    10   ar
    20     9    34    1
    21    10    11   ar
    22    10    35    1
    23    11    12    1
    24    11    23   ar
    25    12    13    2
    26    12    14   am
    27    14    15    1
    28    14    36    1
    29    15    22   ar
    30    15    16   ar
    31    16    17   ar
    32    16    37    1
    33    17    18   ar
    34    17    38    1
    35    18    19    1
    36    18    20   ar
    37    20    21    1
    38    20    22   ar
    39    22    39    1
    40    23    24   ar
    41    23    40    1
    42    24    41    1
@<TRIPOS>SUBSTRUCTURE
     1 ZINC000469459940        1 TEMP              0 ****  ****    0 ROOT


##########                                Name:    ZINC000484424341
##########                DOCK_Rotatable_Bonds:                   7
##########                         Heavy_Atoms:                  26
##########                    Molecular_Weight:             359.425
##########                DOCK_Rotatable_Bonds:                   7
##########                       Formal_Charge:          -0.0100009
##########                     HBond_Acceptors:                   7
##########                        HBond_Donors:                   1
##########                         Heavy_Atoms:                  26
##########                          Grid_Score:          -29.613306
##########                     Grid_vdw_energy:          -25.893116
##########                      Grid_es_energy:           -3.720190
##########           Internal_energy_repulsive:           13.682622

@<TRIPOS>MOLECULE
ZINC000484424341
 51 53 1 0 0
SMALL
USER_CHARGES


@<TRIPOS>ATOM
      1 C1         -7.9741    4.0824   51.9239 C.3     1  ZINC000484424341    0.0300
      2 O2         -6.7033    3.5296   52.2723 O.3     1  ZINC000484424341   -0.3800
      3 C3         -6.2921    2.4457   51.4368 C.3     1  ZINC000484424341    0.1300
      4 H4         -6.7722    2.5358   50.4624 H       1  ZINC000484424341    0.0700
      5 C5         -6.6975    1.1203   52.0845 C.3     1  ZINC000484424341   -0.1700
      6 C6         -4.7955    2.4838   51.2648 C.ar    1  ZINC000484424341   -0.0700
      7 C7         -4.2336    2.1869   50.0368 C.ar    1  ZINC000484424341   -0.1000
      8 C8         -2.8604    2.2207   49.8745 C.ar    1  ZINC000484424341   -0.1000
      9 C9         -2.0458    2.5513   50.9392 C.ar    1  ZINC000484424341   -0.1100
     10 C10        -2.6070    2.8503   52.1747 C.ar    1  ZINC000484424341    0.1400
     11 N11        -1.7856    3.1858   53.2540 N.am    1  ZINC000484424341   -0.6400
     12 C12        -1.8317    4.4277   53.7754 C.2     1  ZINC000484424341    0.5100
     13 O13        -2.5868    5.2548   53.3075 O.2     1  ZINC000484424341   -0.4900
     14 C14        -0.9537    4.7863   54.9292 C.2     1  ZINC000484424341    0.5200
     15 O15        -0.2406    5.7664   54.8675 O.2     1  ZINC000484424341   -0.5200
     16 N16        -0.9535    4.0214   56.0390 N.am    1  ZINC000484424341   -0.5800
     17 C17        -1.7641    2.8126   56.2468 C.3     1  ZINC000484424341    0.1100
     18 C18        -1.4130    2.2601   57.6442 C.3     1  ZINC000484424341   -0.1500
     19 C19        -0.0113    2.8674   57.9159 C.3     1  ZINC000484424341    0.1500
     20 H20         0.7702    2.2747   57.4403 H       1  ZINC000484424341    0.1100
     21 N21         0.2346    2.9979   59.3542 N.am    1  ZINC000484424341   -0.6100
     22 C22        -0.3309    2.1082   60.3753 C.3     1  ZINC000484424341    0.1000
     23 C23         0.5215    2.3406   61.6424 C.3     1  ZINC000484424341   -0.1300
     24 C24         1.0453    3.7769   61.4109 C.3     1  ZINC000484424341   -0.1600
     25 C25         1.0120    3.9446   59.9078 C.2     1  ZINC000484424341    0.5200
     26 O26         1.5957    4.8114   59.2925 O.2     1  ZINC000484424341   -0.5200
     27 C27        -0.1354    4.2547   57.2430 C.3     1  ZINC000484424341    0.0900
     28 C28        -3.9867    2.8209   52.3326 C.ar    1  ZINC000484424341   -0.1300
     29 H29        -8.7393    3.3099   51.9994 H       1  ZINC000484424341    0.0400
     30 H30        -8.2140    4.8992   52.6046 H       1  ZINC000484424341    0.0900
     31 H31        -7.9383    4.4598   50.9019 H       1  ZINC000484424341    0.0400
     32 H32        -6.2174    1.0302   53.0589 H       1  ZINC000484424341    0.0700
     33 H33        -7.7800    1.0927   52.2089 H       1  ZINC000484424341    0.0600
     34 H34        -6.3838    0.2934   51.4472 H       1  ZINC000484424341    0.0700
     35 H35        -4.8684    1.9275   49.2025 H       1  ZINC000484424341    0.1300
     36 H36        -2.4249    1.9877   48.9140 H       1  ZINC000484424341    0.1300
     37 H37        -0.9737    2.5772   50.8119 H       1  ZINC000484424341    0.1300
     38 H38        -1.1822    2.5248   53.6281 H       1  ZINC000484424341    0.4200
     39 H39        -2.8236    3.0649   56.2033 H       1  ZINC000484424341    0.0800
     40 H40        -1.5259    2.0710   55.4843 H       1  ZINC000484424341    0.0800
     41 H41        -2.1328    2.6040   58.3869 H       1  ZINC000484424341    0.0900
     42 H42        -1.3648    1.1712   57.6275 H       1  ZINC000484424341    0.0900
     43 H43        -1.3717    2.3686   60.5678 H       1  ZINC000484424341    0.0800
     44 H44        -0.2545    1.0693   60.0545 H       1  ZINC000484424341    0.0800
     45 H45        -0.0933    2.2897   62.5410 H       1  ZINC000484424341    0.0900
     46 H46         1.3452    1.6286   61.6943 H       1  ZINC000484424341    0.0800
     47 H47         0.3924    4.5036   61.8943 H       1  ZINC000484424341    0.1100
     48 H48         2.0661    3.8749   61.7804 H       1  ZINC000484424341    0.1000
     49 H49         0.8494    4.6331   56.9693 H       1  ZINC000484424341    0.0900
     50 H50        -0.6403    4.9552   57.9083 H       1  ZINC000484424341    0.0900
     51 H51        -4.4263    3.0531   53.2914 H       1  ZINC000484424341    0.1300
@<TRIPOS>BOND
     1     1     2    1
     2     1    29    1
     3     1    30    1
     4     1    31    1
     5     2     3    1
     6     3     4    1
     7     3     5    1
     8     3     6    1
     9     5    32    1
    10     5    33    1
    11     5    34    1
    12     6    28   ar
    13     6     7   ar
    14     7     8   ar
    15     7    35    1
    16     8     9   ar
    17     8    36    1
    18     9    10   ar
    19     9    37    1
    20    10    11    1
    21    10    28   ar
    22    11    12   am
    23    11    38    1
    24    12    13    2
    25    12    14    1
    26    14    15    2
    27    14    16   am
    28    16    27    1
    29    16    17    1
    30    17    18    1
    31    17    39    1
    32    17    40    1
    33    18    19    1
    34    18    41    1
    35    18    42    1
    36    19    20    1
    37    19    21    1
    38    19    27    1
    39    21    25   am
    40    21    22    1
    41    22    23    1
    42    22    43    1
    43    22    44    1
    44    23    24    1
    45    23    45    1
    46    23    46    1
    47    24    25    1
    48    24    47    1
    49    24    48    1
    50    25    26    2
    51    27    49    1
    52    27    50    1
    53    28    51    1
@<TRIPOS>SUBSTRUCTURE
     1 ZINC000484424341        1 TEMP              0 ****  ****    0 ROOT


##########                                Name:    ZINC001053433946
##########                DOCK_Rotatable_Bonds:                   6
##########                         Heavy_Atoms:                  24
##########                    Molecular_Weight:             337.419
##########                DOCK_Rotatable_Bonds:                   6
##########                       Formal_Charge:               -0.02
##########                     HBond_Acceptors:                   7
##########                        HBond_Donors:                   2
##########                         Heavy_Atoms:                  24
##########                          Grid_Score:          -29.591402
##########                     Grid_vdw_energy:          -29.833139
##########                      Grid_es_energy:            0.241738
##########           Internal_energy_repulsive:           17.489365

@<TRIPOS>MOLECULE
ZINC001053433946
 51 54 1 0 0
SMALL
USER_CHARGES


@<TRIPOS>ATOM
      1 N1         -9.9900   -2.8782   55.9856 N.am    1  ZINC001053433946   -0.8300
      2 C2        -10.5028   -2.5450   57.1865 C.2     1  ZINC001053433946    0.5600
      3 O3         -9.9738   -2.9419   58.2032 O.2     1  ZINC001053433946   -0.5500
      4 C4        -11.7338   -1.6793   57.2663 C.3     1  ZINC001053433946   -0.1600
      5 H5        -12.3845   -1.8649   58.1208 H       1  ZINC001053433946    0.1400
      6 C6        -12.3964   -1.2704   55.9493 C.3     1  ZINC001053433946   -0.1300
      7 C7        -11.6170   -0.2376   56.7673 C.3     1  ZINC001053433946   -0.1700
      8 H8        -12.1912    0.5251   57.2931 H       1  ZINC001053433946    0.1400
      9 C9        -10.2804    0.2082   56.2329 C.2     1  ZINC001053433946    0.5400
     10 O10        -9.8939   -0.1922   55.1554 O.2     1  ZINC001053433946   -0.5200
     11 N11        -9.5145    1.0521   56.9525 N.am    1  ZINC001053433946   -0.6100
     12 C12        -8.2058    1.5024   56.4532 C.3     1  ZINC001053433946    0.0700
     13 C13        -7.1514    1.2446   57.5347 C.3     1  ZINC001053433946    0.0500
     14 O14        -7.5674    1.8593   58.7583 O.3     1  ZINC001053433946   -0.3400
     15 C15        -8.8114    1.3745   59.2561 C.3     1  ZINC001053433946    0.0800
     16 C16        -8.7310   -0.0374   59.8521 C.3     1  ZINC001053433946   -0.0100
     17 N17        -8.4605    0.6343   61.1434 N.3     1  ZINC001053433946   -0.4700
     18 C18        -9.2117   -0.0006   62.2346 C.3     1  ZINC001053433946    0.0200
     19 C19        -8.3703    0.0197   63.5123 C.3     1  ZINC001053433946   -0.1200
     20 H20        -7.4348   -0.5127   63.3408 H       1  ZINC001053433946    0.0800
     21 C21        -8.0696    1.4697   63.9042 C.3     1  ZINC001053433946   -0.1200
     22 C22        -7.2941    1.4796   65.2251 C.3     1  ZINC001053433946   -0.1600
     23 C23        -8.1106    0.7467   66.2927 C.3     1  ZINC001053433946    0.0600
     24 O24        -8.3818   -0.5854   65.8519 O.3     1  ZINC001053433946   -0.3800
     25 C25        -9.1446   -0.6583   64.6457 C.3     1  ZINC001053433946    0.0700
     26 C26        -9.1431    1.8610   60.6730 C.3     1  ZINC001053433946    0.0200
     27 C27        -9.9639    1.5578   58.2614 C.3     1  ZINC001053433946    0.1000
     28 H28        -9.1983   -3.4364   55.9343 H       1  ZINC001053433946    0.4000
     29 H29       -10.4147   -2.5631   55.1724 H       1  ZINC001053433946    0.4000
     30 H30       -11.9421   -1.6276   55.0251 H       1  ZINC001053433946    0.1100
     31 H31       -13.4831   -1.1866   55.9374 H       1  ZINC001053433946    0.1200
     32 H32        -7.9478    0.9470   55.5514 H       1  ZINC001053433946    0.1000
     33 H33        -8.2471    2.5684   56.2294 H       1  ZINC001053433946    0.0800
     34 H34        -7.0408    0.1709   57.6862 H       1  ZINC001053433946    0.0600
     35 H35        -6.1974    1.6682   57.2208 H       1  ZINC001053433946    0.1100
     36 H36        -9.6765   -0.5792   59.8280 H       1  ZINC001053433946    0.0800
     37 H37        -7.8925   -0.6252   59.4783 H       1  ZINC001053433946    0.0900
     38 H38       -10.1402    0.5454   62.4023 H       1  ZINC001053433946    0.0500
     39 H39        -9.4402   -1.0320   61.9663 H       1  ZINC001053433946    0.0800
     40 H40        -7.4696    1.9408   63.1256 H       1  ZINC001053433946    0.0700
     41 H41        -9.0049    2.0158   64.0264 H       1  ZINC001053433946    0.0700
     42 H42        -6.3368    0.9763   65.0894 H       1  ZINC001053433946    0.0700
     43 H43        -7.1239    2.5092   65.5399 H       1  ZINC001053433946    0.0700
     44 H44        -7.5448    0.7134   67.2238 H       1  ZINC001053433946    0.0900
     45 H45        -9.0505    1.2736   66.4570 H       1  ZINC001053433946    0.0500
     46 H46       -10.0983   -0.1498   64.7873 H       1  ZINC001053433946    0.0500
     47 H47        -9.3236   -1.7030   64.3913 H       1  ZINC001053433946    0.1000
     48 H48        -8.6325    2.7827   60.9521 H       1  ZINC001053433946    0.1000
     49 H49       -10.2107    1.8815   60.8921 H       1  ZINC001053433946    0.0900
     50 H50       -10.2211    2.6144   58.1864 H       1  ZINC001053433946    0.0800
     51 H51       -10.8322    0.9896   58.5950 H       1  ZINC001053433946    0.1000
@<TRIPOS>BOND
     1     1     2   am
     2     1    28    1
     3     1    29    1
     4     2     3    2
     5     2     4    1
     6     4     5    1
     7     4     7    1
     8     4     6    1
     9     6     7    1
    10     6    30    1
    11     6    31    1
    12     7     8    1
    13     7     9    1
    14     9    10    2
    15     9    11   am
    16    11    27    1
    17    11    12    1
    18    12    13    1
    19    12    32    1
    20    12    33    1
    21    13    14    1
    22    13    34    1
    23    13    35    1
    24    14    15    1
    25    15    26    1
    26    15    16    1
    27    15    27    1
    28    16    17    1
    29    16    36    1
    30    16    37    1
    31    17    18    1
    32    17    26    1
    33    18    19    1
    34    18    38    1
    35    18    39    1
    36    19    20    1
    37    19    25    1
    38    19    21    1
    39    21    22    1
    40    21    40    1
    41    21    41    1
    42    22    23    1
    43    22    42    1
    44    22    43    1
    45    23    24    1
    46    23    44    1
    47    23    45    1
    48    24    25    1
    49    25    46    1
    50    25    47    1
    51    26    48    1
    52    26    49    1
    53    27    50    1
    54    27    51    1
@<TRIPOS>SUBSTRUCTURE
     1 ZINC001053433946        1 TEMP              0 ****  ****    0 ROOT


##########                                Name:    ZINC000842947763
##########                DOCK_Rotatable_Bonds:                   7
##########                         Heavy_Atoms:                  24
##########                    Molecular_Weight:             365.373
##########                DOCK_Rotatable_Bonds:                   7
##########                       Formal_Charge:          0.00999997
##########                     HBond_Acceptors:                   9
##########                        HBond_Donors:                   0
##########                         Heavy_Atoms:                  24
##########                          Grid_Score:          -29.555593
##########                     Grid_vdw_energy:          -29.443964
##########                      Grid_es_energy:           -0.111630
##########           Internal_energy_repulsive:           31.265581

@<TRIPOS>MOLECULE
ZINC000842947763
 42 43 1 0 0
SMALL
USER_CHARGES


@<TRIPOS>ATOM
      1 C1          4.2716    2.1298   48.4666 C.3     1  ZINC000842947763   -0.1600
      2 C2          2.9164    1.5653   48.8972 C.3     1  ZINC000842947763   -0.1000
      3 H3          2.1267    2.0203   48.2995 H       1  ZINC000842947763    0.1000
      4 C4          2.6805    1.8777   50.3764 C.3     1  ZINC000842947763    0.0800
      5 O5          1.2668    1.7444   50.6797 O.3     1  ZINC000842947763   -0.3500
      6 C6          0.5903    2.8774   50.9531 C.2     1  ZINC000842947763    0.5200
      7 O7          1.1805    3.9380   51.0130 O.2     1  ZINC000842947763   -0.5100
      8 C8         -0.8652    2.8302   51.1799 C.ar    1  ZINC000842947763   -0.1600
      9 C9         -1.6877    2.0912   50.3238 C.ar    1  ZINC000842947763   -0.0200
     10 C10        -3.0436    2.0509   50.5409 C.ar    1  ZINC000842947763   -0.1700
     11 C11        -3.6091    2.7470   51.6162 C.ar    1  ZINC000842947763    0.2000
     12 C12        -2.7832    3.4787   52.4615 C.ar    1  ZINC000842947763   -0.1500
     13 C13        -1.4329    3.5193   52.2557 C.ar    1  ZINC000842947763   -0.0100
     14 C14        -3.6408    4.1246   53.5273 C.3     1  ZINC000842947763   -0.0800
     15 C15        -5.0722    3.6741   53.1929 C.3     1  ZINC000842947763    0.1100
     16 N16        -4.9416    2.8316   52.0015 N.am    1  ZINC000842947763   -0.9400
     17 S17        -6.2009    2.0873   51.2253 S.o2    1  ZINC000842947763    2.6100
     18 C18        -6.9283    1.0002   52.4821 C.3     1  ZINC000842947763   -0.6700
     19 O19        -7.0920    3.1474   50.9068 O.2     1  ZINC000842947763   -0.9300
     20 O20        -5.5788    1.3211   50.2031 O.2     1  ZINC000842947763   -0.9400
     21 C21         2.9054    0.0497   48.6881 C.3     1  ZINC000842947763   -0.1600
     22 C22         2.1457   -0.2821   47.4021 C.3     1  ZINC000842947763    0.4600
     23 F23         0.8496    0.2387   47.4785 F       1  ZINC000842947763   -0.1800
     24 F24         2.8113    0.2821   46.3085 F       1  ZINC000842947763   -0.1800
     25 F25         2.0817   -1.6705   47.2433 F       1  ZINC000842947763   -0.1800
     26 H26         4.3791    2.0323   47.3863 H       1  ZINC000842947763    0.0700
     27 H27         4.3317    3.1822   48.7443 H       1  ZINC000842947763    0.0700
     28 H28         5.0696    1.5771   48.9624 H       1  ZINC000842947763    0.0600
     29 H29         3.2510    1.1809   50.9904 H       1  ZINC000842947763    0.0800
     30 H30         3.0031    2.8971   50.5883 H       1  ZINC000842947763    0.0800
     31 H31        -1.2574    1.5527   49.4923 H       1  ZINC000842947763    0.1500
     32 H32        -3.6768    1.4794   49.8784 H       1  ZINC000842947763    0.1500
     33 H33        -0.8036    4.0917   52.9211 H       1  ZINC000842947763    0.1400
     34 H34        -3.3510    3.7691   54.5161 H       1  ZINC000842947763    0.1000
     35 H35        -3.5611    5.2104   53.4738 H       1  ZINC000842947763    0.1000
     36 H36        -5.4902    3.0988   54.0189 H       1  ZINC000842947763    0.1000
     37 H37        -5.7001    4.5387   52.9774 H       1  ZINC000842947763    0.0900
     38 H38        -7.2679    1.5987   53.3276 H       1  ZINC000842947763    0.1300
     39 H39        -7.7749    0.4643   52.0530 H       1  ZINC000842947763    0.1400
     40 H40        -6.1793    0.2846   52.8212 H       1  ZINC000842947763    0.1300
     41 H41         3.9300   -0.3135   48.6087 H       1  ZINC000842947763    0.1200
     42 H42         2.4142   -0.4304   49.5344 H       1  ZINC000842947763    0.1100
@<TRIPOS>BOND
     1     1     2    1
     2     1    26    1
     3     1    27    1
     4     1    28    1
     5     2     3    1
     6     2     4    1
     7     2    21    1
     8     4     5    1
     9     4    29    1
    10     4    30    1
    11     5     6    1
    12     6     7    2
    13     6     8    1
    14     8    13   ar
    15     8     9   ar
    16     9    10   ar
    17     9    31    1
    18    10    11   ar
    19    10    32    1
    20    11    16    1
    21    11    12   ar
    22    12    13   ar
    23    12    14    1
    24    13    33    1
    25    14    15    1
    26    14    34    1
    27    14    35    1
    28    15    16    1
    29    15    36    1
    30    15    37    1
    31    16    17   am
    32    17    18    1
    33    17    19    2
    34    17    20    2
    35    18    38    1
    36    18    39    1
    37    18    40    1
    38    21    22    1
    39    21    41    1
    40    21    42    1
    41    22    23    1
    42    22    24    1
    43    22    25    1
@<TRIPOS>SUBSTRUCTURE
     1 ZINC000842947763        1 TEMP              0 ****  ****    0 ROOT


##########                                Name:    ZINC000298969660
##########                DOCK_Rotatable_Bonds:                  10
##########                         Heavy_Atoms:                  29
##########                    Molecular_Weight:             397.474
##########                DOCK_Rotatable_Bonds:                  10
##########                       Formal_Charge:          -0.0100008
##########                     HBond_Acceptors:                   7
##########                        HBond_Donors:                   2
##########                         Heavy_Atoms:                  29
##########                          Grid_Score:          -29.513861
##########                     Grid_vdw_energy:          -28.433043
##########                      Grid_es_energy:           -1.080818
##########           Internal_energy_repulsive:           12.287734

@<TRIPOS>MOLECULE
ZINC000298969660
 56 58 1 0 0
SMALL
USER_CHARGES


@<TRIPOS>ATOM
      1 C1         -7.1213    3.8979   50.8925 C.3     1  ZINC000298969660    0.0800
      2 N2         -6.1847    3.0022   51.5757 N.am    1  ZINC000298969660   -0.6300
      3 C3         -6.6462    1.7069   52.0808 C.3     1  ZINC000298969660    0.1400
      4 C4         -7.9231    1.9046   52.9002 C.3     1  ZINC000298969660    0.0700
      5 H5         -8.6231    2.5234   52.3389 H       1  ZINC000298969660    0.0500
      6 C6         -7.5792    2.5941   54.2231 C.3     1  ZINC000298969660   -0.1500
      7 C7         -8.8525    2.7341   55.0631 C.3     1  ZINC000298969660   -0.1200
      8 C8         -9.4674    1.3470   55.2732 C.3     1  ZINC000298969660   -0.1600
      9 C9         -9.7383    0.7056   53.9097 C.3     1  ZINC000298969660    0.0600
     10 O10        -8.5193    0.6336   53.1677 O.3     1  ZINC000298969660   -0.3600
     11 C11        -4.8985    3.3700   51.7394 C.2     1  ZINC000298969660    0.7100
     12 O12        -4.5159    4.4457   51.3214 O.2     1  ZINC000298969660   -0.5400
     13 N13        -4.0363    2.5453   52.3664 N.am    1  ZINC000298969660   -0.6900
     14 C14        -2.7009    2.9272   52.5364 C.ar    1  ZINC000298969660    0.2000
     15 C15        -2.2770    3.4528   53.7500 C.ar    1  ZINC000298969660   -0.1800
     16 C16        -0.9585    3.8304   53.9177 C.ar    1  ZINC000298969660   -0.0600
     17 C17        -0.0586    3.6860   52.8792 C.ar    1  ZINC000298969660   -0.2300
     18 C18        -0.4766    3.1613   51.6640 C.ar    1  ZINC000298969660    0.1500
     19 O19         0.4096    3.0203   50.6435 O.3     1  ZINC000298969660   -0.2900
     20 C20         0.6961    1.6883   50.2122 C.3     1  ZINC000298969660    0.0400
     21 C21         1.7206    1.7273   49.1078 C.2     1  ZINC000298969660    0.5100
     22 O22         2.6704    2.4774   49.1878 O.2     1  ZINC000298969660   -0.4900
     23 N23         1.5815    0.9286   48.0311 N.am    1  ZINC000298969660   -0.6700
     24 C24         2.5328    0.9648   47.0056 C.ar    1  ZINC000298969660    0.1400
     25 C25         3.2008   -0.1948   46.6349 C.ar    1  ZINC000298969660   -0.1400
     26 C26         4.1392   -0.1558   45.6223 C.ar    1  ZINC000298969660   -0.1000
     27 C27         4.4143    1.0365   44.9781 C.ar    1  ZINC000298969660   -0.1300
     28 C28         3.7511    2.1931   45.3451 C.ar    1  ZINC000298969660   -0.1000
     29 C29         2.8067    2.1594   46.3525 C.ar    1  ZINC000298969660   -0.1200
     30 C30        -1.7970    2.7762   51.4940 C.ar    1  ZINC000298969660   -0.1500
     31 H31        -7.5928    4.5560   51.6224 H       1  ZINC000298969660    0.0600
     32 H32        -6.5818    4.4966   50.1586 H       1  ZINC000298969660    0.0700
     33 H33        -7.8863    3.3076   50.3881 H       1  ZINC000298969660    0.0800
     34 H34        -6.8522    1.0422   51.2417 H       1  ZINC000298969660    0.1000
     35 H35        -5.8741    1.2668   52.7118 H       1  ZINC000298969660    0.0900
     36 H36        -6.8483    1.9955   54.7667 H       1  ZINC000298969660    0.0800
     37 H37        -7.1651    3.5821   54.0220 H       1  ZINC000298969660    0.0700
     38 H38        -8.6054    3.1736   56.0295 H       1  ZINC000298969660    0.0700
     39 H39        -9.5649    3.3735   54.5417 H       1  ZINC000298969660    0.0600
     40 H40        -8.7746    0.7232   55.8379 H       1  ZINC000298969660    0.0700
     41 H41       -10.4037    1.4431   55.8230 H       1  ZINC000298969660    0.0700
     42 H42       -10.1364   -0.2989   54.0532 H       1  ZINC000298969660    0.0900
     43 H43       -10.4623    1.3088   53.3617 H       1  ZINC000298969660    0.0400
     44 H44        -4.3416    1.6871   52.6999 H       1  ZINC000298969660    0.4100
     45 H45        -2.9786    3.5666   54.5632 H       1  ZINC000298969660    0.1300
     46 H46        -0.6309    4.2394   54.8619 H       1  ZINC000298969660    0.1300
     47 H47         0.9714    3.9820   53.0132 H       1  ZINC000298969660    0.1300
     48 H48         1.0869    1.1112   51.0502 H       1  ZINC000298969660    0.1000
     49 H49        -0.2175    1.2213   49.8441 H       1  ZINC000298969660    0.1000
     50 H50         0.8219    0.3288   47.9671 H       1  ZINC000298969660    0.4100
     51 H51         2.9870   -1.1262   47.1382 H       1  ZINC000298969660    0.1300
     52 H52         4.6591   -1.0573   45.3336 H       1  ZINC000298969660    0.1300
     53 H53         5.1487    1.0645   44.1869 H       1  ZINC000298969660    0.1200
     54 H54         3.9685    3.1228   44.8405 H       1  ZINC000298969660    0.1300
     55 H55         2.2892    3.0630   46.6387 H       1  ZINC000298969660    0.1300
     56 H56        -2.1240    2.3678   50.5493 H       1  ZINC000298969660    0.1500
@<TRIPOS>BOND
     1     1     2    1
     2     1    31    1
     3     1    32    1
     4     1    33    1
     5     2     3    1
     6     2    11   am
     7     3     4    1
     8     3    34    1
     9     3    35    1
    10     4     5    1
    11     4    10    1
    12     4     6    1
    13     6     7    1
    14     6    36    1
    15     6    37    1
    16     7     8    1
    17     7    38    1
    18     7    39    1
    19     8     9    1
    20     8    40    1
    21     8    41    1
    22     9    10    1
    23     9    42    1
    24     9    43    1
    25    11    12    2
    26    11    13   am
    27    13    14    1
    28    13    44    1
    29    14    30   ar
    30    14    15   ar
    31    15    16   ar
    32    15    45    1
    33    16    17   ar
    34    16    46    1
    35    17    18   ar
    36    17    47    1
    37    18    19    1
    38    18    30   ar
    39    19    20    1
    40    20    21    1
    41    20    48    1
    42    20    49    1
    43    21    22    2
    44    21    23   am
    45    23    24    1
    46    23    50    1
    47    24    29   ar
    48    24    25   ar
    49    25    26   ar
    50    25    51    1
    51    26    27   ar
    52    26    52    1
    53    27    28   ar
    54    27    53    1
    55    28    29   ar
    56    28    54    1
    57    29    55    1
    58    30    56    1
@<TRIPOS>SUBSTRUCTURE
     1 ZINC000298969660        1 TEMP              0 ****  ****    0 ROOT


##########                                Name:    ZINC000962730513
##########                DOCK_Rotatable_Bonds:                   6
##########                         Heavy_Atoms:                  24
##########                    Molecular_Weight:             342.465
##########                DOCK_Rotatable_Bonds:                   6
##########                       Formal_Charge:         -0.00999998
##########                     HBond_Acceptors:                   6
##########                        HBond_Donors:                   1
##########                         Heavy_Atoms:                  24
##########                          Grid_Score:          -29.513805
##########                     Grid_vdw_energy:          -30.608509
##########                      Grid_es_energy:            1.094703
##########           Internal_energy_repulsive:           12.740755

@<TRIPOS>MOLECULE
ZINC000962730513
 46 49 1 0 0
SMALL
USER_CHARGES


@<TRIPOS>ATOM
      1 C1         -0.0110   -1.7314   61.5101 C.3     1  ZINC000962730513   -0.1400
      2 C2          0.9090   -0.6318   62.0444 C.3     1  ZINC000962730513   -0.0800
      3 C3          0.0786    0.4528   62.6809 C.2     1  ZINC000962730513   -0.0100
      4 C4         -0.4889    1.4762   61.9751 C.2     1  ZINC000962730513   -0.2800
      5 C5         -0.3811    1.6725   60.5265 C.2     1  ZINC000962730513    0.6000
      6 O6          0.0076    0.7636   59.8165 O.2     1  ZINC000962730513   -0.5200
      7 N7         -0.7124    2.8594   59.9809 N.am    1  ZINC000962730513   -0.7000
      8 C8         -0.6029    3.0562   58.5332 C.3     1  ZINC000962730513    0.1200
      9 H9          0.3492    2.7641   58.0904 H       1  ZINC000962730513    0.1400
     10 C10        -1.3197    4.2658   57.9299 C.3     1  ZINC000962730513   -0.1700
     11 H11        -1.8257    4.9732   58.5869 H       1  ZINC000962730513    0.1200
     12 C12        -0.8462    4.7805   56.5537 C.3     1  ZINC000962730513    0.0700
     13 N13        -1.6165    3.9784   55.5687 N.3     1  ZINC000962730513   -0.5000
     14 C14        -0.9545    3.9780   54.2572 C.3     1  ZINC000962730513    0.1100
     15 C15        -1.9166    3.4813   53.2090 C.ar    1  ZINC000962730513    0.3200
     16 N16        -1.4510    3.1231   52.0293 N.ar    1  ZINC000962730513   -0.5100
     17 C17        -2.2658    2.6823   51.0843 C.ar    1  ZINC000962730513    0.1500
     18 C18        -3.6236    2.6001   51.3492 C.ar    1  ZINC000962730513   -0.1900
     19 C19        -4.5857    2.1031   50.3012 C.3     1  ZINC000962730513   -0.1100
     20 C20        -4.0755    2.9859   52.6014 C.ar    1  ZINC000962730513    0.1500
     21 N21        -3.2005    3.4118   53.4983 N.ar    1  ZINC000962730513   -0.5000
     22 C22        -1.6434    2.6123   56.1518 C.3     1  ZINC000962730513    0.0700
     23 C23        -1.8653    2.8435   57.6953 C.3     1  ZINC000962730513   -0.1700
     24 H24        -2.7935    2.4761   58.1328 H       1  ZINC000962730513    0.1300
     25 S25        -1.3697    2.5194   63.0831 S.3     1  ZINC000962730513    0.1900
     26 C26        -0.9391    1.5456   64.4162 C.2     1  ZINC000962730513   -0.2200
     27 C27        -0.1883    0.5079   64.0282 C.2     1  ZINC000962730513   -0.1500
     28 H28        -0.5898   -2.1523   62.3323 H       1  ZINC000962730513    0.0600
     29 H29        -0.6883   -1.3094   60.7676 H       1  ZINC000962730513    0.0500
     30 H30         0.5897   -2.5158   61.0497 H       1  ZINC000962730513    0.0600
     31 H31         1.5863   -1.0539   62.7869 H       1  ZINC000962730513    0.1000
     32 H32         1.4878   -0.2110   61.2222 H       1  ZINC000962730513    0.0700
     33 H33        -1.0232    3.5834   60.5467 H       1  ZINC000962730513    0.4000
     34 H34        -1.0767    5.8402   56.4442 H       1  ZINC000962730513    0.0900
     35 H35         0.2231    4.6085   56.4308 H       1  ZINC000962730513    0.0500
     36 H36        -0.6385    4.9914   54.0094 H       1  ZINC000962730513    0.1000
     37 H37        -0.0834    3.3236   54.2902 H       1  ZINC000962730513    0.0700
     38 H38        -1.8778    2.3905   50.1195 H       1  ZINC000962730513    0.1700
     39 H39        -4.6930    1.0220   50.3900 H       1  ZINC000962730513    0.0800
     40 H40        -5.5565    2.5775   50.4449 H       1  ZINC000962730513    0.0700
     41 H41        -4.2035    2.3501   49.3108 H       1  ZINC000962730513    0.0700
     42 H42        -5.1268    2.9359   52.8433 H       1  ZINC000962730513    0.1700
     43 H43        -2.4742    2.0395   55.7398 H       1  ZINC000962730513    0.0800
     44 H44        -0.6989    2.1010   55.9661 H       1  ZINC000962730513    0.0600
     45 H45        -1.2361    1.7384   65.4364 H       1  ZINC000962730513    0.1700
     46 H46         0.1873   -0.2277   64.7239 H       1  ZINC000962730513    0.1500
@<TRIPOS>BOND
     1     1     2    1
     2     1    28    1
     3     1    29    1
     4     1    30    1
     5     2     3    1
     6     2    31    1
     7     2    32    1
     8     3    27    1
     9     3     4    2
    10     4     5    1
    11     4    25    1
    12     5     6    2
    13     5     7   am
    14     7     8    1
    15     7    33    1
    16     8     9    1
    17     8    23    1
    18     8    10    1
    19    10    11    1
    20    10    23    1
    21    10    12    1
    22    12    13    1
    23    12    34    1
    24    12    35    1
    25    13    14    1
    26    13    22    1
    27    14    15    1
    28    14    36    1
    29    14    37    1
    30    15    21   ar
    31    15    16   ar
    32    16    17   ar
    33    17    18   ar
    34    17    38    1
    35    18    19    1
    36    18    20   ar
    37    19    39    1
    38    19    40    1
    39    19    41    1
    40    20    21   ar
    41    20    42    1
    42    22    23    1
    43    22    43    1
    44    22    44    1
    45    23    24    1
    46    25    26    1
    47    26    27    2
    48    26    45    1
    49    27    46    1
@<TRIPOS>SUBSTRUCTURE
     1 ZINC000962730513        1 TEMP              0 ****  ****    0 ROOT


##########                                Name:    ZINC000822206030
##########                DOCK_Rotatable_Bonds:                   7
##########                         Heavy_Atoms:                  29
##########                    Molecular_Weight:             391.448
##########                DOCK_Rotatable_Bonds:                   7
##########                       Formal_Charge:         -0.00999995
##########                     HBond_Acceptors:                   7
##########                        HBond_Donors:                   1
##########                         Heavy_Atoms:                  29
##########                          Grid_Score:          -29.497334
##########                     Grid_vdw_energy:          -30.705278
##########                      Grid_es_energy:            1.207944
##########           Internal_energy_repulsive:           23.175236

@<TRIPOS>MOLECULE
ZINC000822206030
 51 55 1 0 0
SMALL
USER_CHARGES


@<TRIPOS>ATOM
      1 C1        -12.2983    0.9047   59.0481 C.3     1  ZINC000822206030   -0.1300
      2 C2        -10.7977    1.0132   59.1361 C.ar    1  ZINC000822206030   -0.0400
      3 C3        -10.2025    1.4248   60.3122 C.ar    1  ZINC000822206030   -0.1500
      4 C4         -8.8236    1.5252   60.3934 C.ar    1  ZINC000822206030    0.1100
      5 F5         -8.2433    1.9285   61.5448 F       1  ZINC000822206030   -0.1400
      6 C6         -8.0390    1.2124   59.2963 C.ar    1  ZINC000822206030   -0.1500
      7 C7         -8.6305    0.8003   58.1180 C.ar    1  ZINC000822206030   -0.0800
      8 C8        -10.0123    0.6940   58.0362 C.ar    1  ZINC000822206030    0.1100
      9 N9        -10.6139    0.2760   56.8428 N.am    1  ZINC000822206030   -0.5600
     10 C10       -10.8482    1.2391   55.7640 C.3     1  ZINC000822206030    0.1500
     11 C11        -9.6567    1.2596   54.8415 C.ar    1  ZINC000822206030   -0.0900
     12 C12        -9.6253    0.4263   53.7379 C.ar    1  ZINC000822206030   -0.1000
     13 C13        -8.5367    0.4414   52.8895 C.ar    1  ZINC000822206030   -0.0800
     14 C14        -7.4685    1.2978   53.1462 C.ar    1  ZINC000822206030   -0.0100
     15 C15        -6.2951    1.3187   52.2369 C.2     1  ZINC000822206030    0.2200
     16 N16        -6.0718    0.5090   51.2211 N.2     1  ZINC000822206030   -0.2900
     17 N17        -4.9508    0.8495   50.6844 N.pl3   1  ZINC000822206030   -0.2300
     18 N18        -4.4568    1.8490   51.3279 N.2     1  ZINC000822206030   -0.0500
     19 N19        -5.2595    2.1683   52.2857 N.2     1  ZINC000822206030   -0.2700
     20 C20        -7.5052    2.1349   54.2591 C.ar    1  ZINC000822206030   -0.0800
     21 C21        -8.6010    2.1156   55.0981 C.ar    1  ZINC000822206030   -0.0900
     22 C22       -10.9775   -1.0124   56.6866 C.2     1  ZINC000822206030    0.5500
     23 O23       -11.4999   -1.3742   55.6536 O.2     1  ZINC000822206030   -0.5000
     24 C24       -10.7348   -2.0036   57.7955 C.3     1  ZINC000822206030   -0.1900
     25 H25       -10.1955   -1.6182   58.6608 H       1  ZINC000822206030    0.1200
     26 C26       -10.4858   -3.4602   57.3993 C.3     1  ZINC000822206030   -0.1400
     27 C27       -11.8130   -3.0593   58.0479 C.3     1  ZINC000822206030   -0.0900
     28 H28       -11.9830   -3.3688   59.0792 H       1  ZINC000822206030    0.1100
     29 C29       -13.0551   -3.0289   57.1550 C.3     1  ZINC000822206030   -0.1100
     30 C30       -14.3773   -3.4949   57.7677 C.3     1  ZINC000822206030   -0.2000
     31 C31       -14.1434   -2.0081   57.4932 C.3     1  ZINC000822206030   -0.1200
     32 H32       -12.6082   -0.0967   59.3469 H       1  ZINC000822206030    0.0900
     33 H33       -12.7552    1.6394   59.7111 H       1  ZINC000822206030    0.0700
     34 H34       -12.6166    1.0928   58.0227 H       1  ZINC000822206030    0.0700
     35 H35       -10.8128    1.6688   61.1692 H       1  ZINC000822206030    0.1400
     36 H36        -6.9638    1.2910   59.3618 H       1  ZINC000822206030    0.1400
     37 H37        -8.0182    0.5568   57.2624 H       1  ZINC000822206030    0.1400
     38 H38       -11.7366    0.9480   55.2037 H       1  ZINC000822206030    0.1000
     39 H39       -10.9958    2.2319   56.1891 H       1  ZINC000822206030    0.0900
     40 H40       -10.4539   -0.2375   53.5400 H       1  ZINC000822206030    0.1300
     41 H41        -8.5130   -0.2098   52.0283 H       1  ZINC000822206030    0.1400
     42 H42        -4.5429    0.4197   49.9163 H       1  ZINC000822206030    0.4800
     43 H43        -6.6795    2.8005   54.4629 H       1  ZINC000822206030    0.1300
     44 H44        -8.6307    2.7642   55.9612 H       1  ZINC000822206030    0.1400
     45 H45       -10.4976   -3.7015   56.3364 H       1  ZINC000822206030    0.1000
     46 H46        -9.7830   -4.0332   58.0041 H       1  ZINC000822206030    0.1000
     47 H47       -12.8824   -3.2501   56.1018 H       1  ZINC000822206030    0.1000
     48 H48       -15.0748   -4.0232   57.1176 H       1  ZINC000822206030    0.0900
     49 H49       -14.3624   -3.8233   58.8069 H       1  ZINC000822206030    0.0900
     50 H50       -13.9747   -1.3583   58.3519 H       1  ZINC000822206030    0.0800
     51 H51       -14.6871   -1.5581   56.6625 H       1  ZINC000822206030    0.0900
@<TRIPOS>BOND
     1     1     2    1
     2     1    32    1
     3     1    33    1
     4     1    34    1
     5     2     8   ar
     6     2     3   ar
     7     3     4   ar
     8     3    35    1
     9     4     5    1
    10     4     6   ar
    11     6     7   ar
    12     6    36    1
    13     7     8   ar
    14     7    37    1
    15     8     9    1
    16     9    10    1
    17     9    22   am
    18    10    11    1
    19    10    38    1
    20    10    39    1
    21    11    21   ar
    22    11    12   ar
    23    12    13   ar
    24    12    40    1
    25    13    14   ar
    26    13    41    1
    27    14    15    1
    28    14    20   ar
    29    15    19    1
    30    15    16    2
    31    16    17    1
    32    17    18    1
    33    17    42    1
    34    18    19    2
    35    20    21   ar
    36    20    43    1
    37    21    44    1
    38    22    23    2
    39    22    24    1
    40    24    25    1
    41    24    27    1
    42    24    26    1
    43    26    27    1
    44    26    45    1
    45    26    46    1
    46    27    28    1
    47    27    29    1
    48    29    31    1
    49    29    30    1
    50    29    47    1
    51    30    31    1
    52    30    48    1
    53    30    49    1
    54    31    50    1
    55    31    51    1
@<TRIPOS>SUBSTRUCTURE
     1 ZINC000822206030        1 TEMP              0 ****  ****    0 ROOT


##########                                Name:    ZINC000797321835
##########                DOCK_Rotatable_Bonds:                   4
##########                         Heavy_Atoms:                  22
##########                    Molecular_Weight:             381.253
##########                DOCK_Rotatable_Bonds:                   4
##########                       Formal_Charge:           0.0200001
##########                     HBond_Acceptors:                   7
##########                        HBond_Donors:                   1
##########                         Heavy_Atoms:                  22
##########                          Grid_Score:          -29.493347
##########                     Grid_vdw_energy:          -29.730263
##########                      Grid_es_energy:            0.236916
##########           Internal_energy_repulsive:           13.327225

@<TRIPOS>MOLECULE
ZINC000797321835
 35 37 1 0 0
SMALL
USER_CHARGES


@<TRIPOS>ATOM
      1 C1         -7.3929   -0.1060   52.5231 C.3     1  ZINC000797321835    0.1000
      2 N2         -7.4885    1.2856   52.9709 N.am    1  ZINC000797321835   -0.6000
      3 C3         -8.0722    1.6750   54.1175 C.2     1  ZINC000797321835    0.5200
      4 O4         -8.5960    0.9298   54.9183 O.2     1  ZINC000797321835   -0.5200
      5 C5         -7.9801    3.1778   54.2640 C.3     1  ZINC000797321835   -0.1500
      6 C6         -6.8934    3.5922   53.2449 C.3     1  ZINC000797321835   -0.1200
      7 C7         -6.9540    2.4331   52.2283 C.3     1  ZINC000797321835    0.1200
      8 H8         -7.6227    2.6870   51.4060 H       1  ZINC000797321835    0.1100
      9 C9         -5.5749    2.1277   51.7028 C.2     1  ZINC000797321835    0.4900
     10 O10        -5.2835    0.9936   51.3873 O.2     1  ZINC000797321835   -0.4400
     11 N11        -4.6655    3.1152   51.5835 N.am    1  ZINC000797321835   -0.6500
     12 C12        -3.3892    2.8327   51.0971 C.ar    1  ZINC000797321835    0.3000
     13 C13        -2.2643    3.1764   51.8478 C.ar    1  ZINC000797321835   -0.1400
     14 C14        -1.0186    2.8769   51.3269 C.ar    1  ZINC000797321835   -0.0800
     15 C15        -0.9642    2.2465   50.0768 C.ar    1  ZINC000797321835    0.1100
     16 C16         0.3405    1.9041   49.4755 C.2     1  ZINC000797321835   -0.1400
     17 C17         0.5244    1.4592   48.2158 C.2     1  ZINC000797321835   -0.0900
     18 C18         1.8375    1.2055   47.8798 C.2     1  ZINC000797321835   -0.0900
     19 C19         2.7260    1.4389   48.8523 C.2     1  ZINC000797321835   -0.2000
     20 Br20        4.5944    1.1885   48.7019 Br      1  ZINC000797321835    0.0200
     21 S21         1.8955    2.0207   50.2890 S.3     1  ZINC000797321835    0.1900
     22 N22        -2.0910    1.9575   49.4349 N.ar    1  ZINC000797321835   -0.1900
     23 N23        -3.2447    2.2331   49.9251 N.ar    1  ZINC000797321835   -0.2200
     24 H24        -6.4734   -0.5486   52.9063 H       1  ZINC000797321835    0.0700
     25 H25        -8.2494   -0.6675   52.8964 H       1  ZINC000797321835    0.0800
     26 H26        -7.3847   -0.1374   51.4336 H       1  ZINC000797321835    0.0700
     27 H27        -8.9334    3.6444   54.0160 H       1  ZINC000797321835    0.1100
     28 H28        -7.6756    3.4446   55.2760 H       1  ZINC000797321835    0.1100
     29 H29        -7.1435    4.5423   52.7726 H       1  ZINC000797321835    0.1100
     30 H30        -5.9127    3.6399   53.7182 H       1  ZINC000797321835    0.0900
     31 H31        -4.8985    4.0224   51.8357 H       1  ZINC000797321835    0.4200
     32 H32        -2.3635    3.6623   52.8072 H       1  ZINC000797321835    0.1600
     33 H33        -0.1159    3.1216   51.8669 H       1  ZINC000797321835    0.1500
     34 H34        -0.2925    1.3128   47.5247 H       1  ZINC000797321835    0.1600
     35 H35         2.1271    0.8448   46.9040 H       1  ZINC000797321835    0.1600
@<TRIPOS>BOND
     1     1     2    1
     2     1    24    1
     3     1    25    1
     4     1    26    1
     5     2     7    1
     6     2     3   am
     7     3     4    2
     8     3     5    1
     9     5     6    1
    10     5    27    1
    11     5    28    1
    12     6     7    1
    13     6    29    1
    14     6    30    1
    15     7     8    1
    16     7     9    1
    17     9    10    2
    18     9    11   am
    19    11    12    1
    20    11    31    1
    21    12    23   ar
    22    12    13   ar
    23    13    14   ar
    24    13    32    1
    25    14    15   ar
    26    14    33    1
    27    15    16    1
    28    15    22   ar
    29    16    21    1
    30    16    17    2
    31    17    18    1
    32    17    34    1
    33    18    19    2
    34    18    35    1
    35    19    20    1
    36    19    21    1
    37    22    23   ar
@<TRIPOS>SUBSTRUCTURE
     1 ZINC000797321835        1 TEMP              0 ****  ****    0 ROOT


##########                                Name:    ZINC000460972051
##########                DOCK_Rotatable_Bonds:                  10
##########                         Heavy_Atoms:                  29
##########                    Molecular_Weight:             417.572
##########                DOCK_Rotatable_Bonds:                  10
##########                       Formal_Charge:         3.31551e-07
##########                     HBond_Acceptors:                   7
##########                        HBond_Donors:                   2
##########                         Heavy_Atoms:                  29
##########                          Grid_Score:          -29.490570
##########                     Grid_vdw_energy:          -30.274775
##########                      Grid_es_energy:            0.784204
##########           Internal_energy_repulsive:           32.009212

@<TRIPOS>MOLECULE
ZINC000460972051
 60 61 1 0 0
SMALL
USER_CHARGES


@<TRIPOS>ATOM
      1 C1          0.0050    5.9138   60.5709 C.3     1  ZINC000460972051   -0.1800
      2 C2         -1.1231    4.8991   60.7675 C.3     1  ZINC000460972051    0.1000
      3 N3         -1.3811    4.2048   59.5035 N.am    1  ZINC000460972051   -0.6200
      4 C4         -2.2212    4.7437   58.5979 C.2     1  ZINC000460972051    0.7100
      5 O5         -2.7661    5.8055   58.8306 O.2     1  ZINC000460972051   -0.5800
      6 N6         -2.4573    4.1057   57.4344 N.am    1  ZINC000460972051   -0.7400
      7 C7         -3.3691    4.6924   56.4492 C.3     1  ZINC000460972051    0.2000
      8 H8         -3.3075    5.7796   56.4993 H       1  ZINC000460972051    0.1100
      9 C9         -2.9755    4.2233   55.0471 C.3     1  ZINC000460972051    0.1100
     10 N10        -3.5807    5.1079   54.0484 N.am    1  ZINC000460972051   -1.1200
     11 S11        -4.1157    4.4881   52.6090 S.o2    1  ZINC000460972051    2.7000
     12 O12        -4.9976    3.4224   52.9340 O.2     1  ZINC000460972051   -0.9500
     13 O13        -4.5006    5.5997   51.8118 O.2     1  ZINC000460972051   -0.9600
     14 C14        -2.7270    3.7580   51.8072 C.ar    1  ZINC000460972051   -0.6900
     15 C15        -1.4471    4.1614   52.1378 C.ar    1  ZINC000460972051   -0.0100
     16 C16        -0.3575    3.5884   51.5086 C.ar    1  ZINC000460972051   -0.1500
     17 C17        -0.5480    2.6119   50.5492 C.ar    1  ZINC000460972051   -0.0200
     18 C18         0.6396    1.9877   49.8630 C.3     1  ZINC000460972051   -0.1300
     19 C19        -1.8283    2.2073   50.2194 C.ar    1  ZINC000460972051   -0.1500
     20 C20        -2.9175    2.7774   50.8512 C.ar    1  ZINC000460972051    0.0300
     21 C21        -4.3130    2.3365   50.4918 C.3     1  ZINC000460972051   -0.1700
     22 C22        -4.7801    4.2550   56.7476 C.ar    1  ZINC000460972051   -0.1000
     23 C23        -5.7952    5.1912   56.8101 C.ar    1  ZINC000460972051   -0.1000
     24 C24        -7.0895    4.7900   57.0838 C.ar    1  ZINC000460972051   -0.1200
     25 C25        -7.3687    3.4526   57.2945 C.ar    1  ZINC000460972051   -0.1200
     26 C26        -6.3536    2.5164   57.2311 C.ar    1  ZINC000460972051   -0.1200
     27 C27        -5.0601    2.9171   56.9532 C.ar    1  ZINC000460972051   -0.1000
     28 C28        -0.7260    2.9246   59.2241 C.3     1  ZINC000460972051    0.1500
     29 C29         0.3959    3.1374   58.2057 C.3     1  ZINC000460972051   -0.1600
     30 C30        -0.1390    2.3586   60.5187 C.3     1  ZINC000460972051   -0.1600
     31 H31         0.1970    6.4303   61.5113 H       1  ZINC000460972051    0.0700
     32 H32         0.9084    5.3950   60.2503 H       1  ZINC000460972051    0.0600
     33 H33        -0.2868    6.6387   59.8111 H       1  ZINC000460972051    0.0700
     34 H34        -0.8314    4.1741   61.5274 H       1  ZINC000460972051    0.0700
     35 H35        -2.0266    5.4179   61.0882 H       1  ZINC000460972051    0.0900
     36 H36        -2.0235    3.2581   57.2494 H       1  ZINC000460972051    0.4000
     37 H37        -1.8904    4.2502   54.9463 H       1  ZINC000460972051    0.0900
     38 H38        -3.3298    3.2042   54.8921 H       1  ZINC000460972051    0.0900
     39 H39        -3.6681    6.0567   54.2303 H       1  ZINC000460972051    0.4200
     40 H40        -1.2981    4.9245   52.8874 H       1  ZINC000460972051    0.1400
     41 H41         0.6426    3.9042   51.7664 H       1  ZINC000460972051    0.1300
     42 H42         0.9666    1.1136   50.4262 H       1  ZINC000460972051    0.0800
     43 H43         0.3590    1.6858   48.8540 H       1  ZINC000460972051    0.0700
     44 H44         1.4523    2.7123   49.8126 H       1  ZINC000460972051    0.0700
     45 H45        -1.9773    1.4441   49.4701 H       1  ZINC000460972051    0.1300
     46 H46        -4.6486    1.5795   51.2005 H       1  ZINC000460972051    0.0900
     47 H47        -4.9857    3.1932   50.5294 H       1  ZINC000460972051    0.1000
     48 H48        -4.3138    1.9177   49.4854 H       1  ZINC000460972051    0.0900
     49 H49        -5.5772    6.2360   56.6454 H       1  ZINC000460972051    0.1200
     50 H50        -7.8825    5.5215   57.1333 H       1  ZINC000460972051    0.1200
     51 H51        -8.3797    3.1393   57.5091 H       1  ZINC000460972051    0.1200
     52 H52        -6.5716    1.4715   57.3961 H       1  ZINC000460972051    0.1200
     53 H53        -4.2671    2.1855   56.9037 H       1  ZINC000460972051    0.1200
     54 H54        -1.4559    2.2236   58.8192 H       1  ZINC000460972051    0.1000
     55 H55        -0.0222    3.5406   57.2834 H       1  ZINC000460972051    0.0600
     56 H56         1.1259    3.8384   58.6105 H       1  ZINC000460972051    0.0600
     57 H57         0.8834    2.1849   57.9978 H       1  ZINC000460972051    0.0700
     58 H58        -0.9382    2.2070   61.2442 H       1  ZINC000460972051    0.0600
     59 H59         0.3484    1.4062   60.3107 H       1  ZINC000460972051    0.0700
     60 H60         0.5910    3.0596   60.9235 H       1  ZINC000460972051    0.0600
@<TRIPOS>BOND
     1     1     2    1
     2     1    31    1
     3     1    32    1
     4     1    33    1
     5     2     3    1
     6     2    34    1
     7     2    35    1
     8     3     4   am
     9     3    28    1
    10     4     5    2
    11     4     6   am
    12     6     7    1
    13     6    36    1
    14     7     8    1
    15     7     9    1
    16     7    22    1
    17     9    10    1
    18     9    37    1
    19     9    38    1
    20    10    11   am
    21    10    39    1
    22    11    12    2
    23    11    13    2
    24    11    14    1
    25    14    20   ar
    26    14    15   ar
    27    15    16   ar
    28    15    40    1
    29    16    17   ar
    30    16    41    1
    31    17    18    1
    32    17    19   ar
    33    18    42    1
    34    18    43    1
    35    18    44    1
    36    19    20   ar
    37    19    45    1
    38    20    21    1
    39    21    46    1
    40    21    47    1
    41    21    48    1
    42    22    27   ar
    43    22    23   ar
    44    23    24   ar
    45    23    49    1
    46    24    25   ar
    47    24    50    1
    48    25    26   ar
    49    25    51    1
    50    26    27   ar
    51    26    52    1
    52    27    53    1
    53    28    29    1
    54    28    30    1
    55    28    54    1
    56    29    55    1
    57    29    56    1
    58    29    57    1
    59    30    58    1
    60    30    59    1
    61    30    60    1
@<TRIPOS>SUBSTRUCTURE
     1 ZINC000460972051        1 TEMP              0 ****  ****    0 ROOT


##########                                Name:    ZINC001085817863
##########                DOCK_Rotatable_Bonds:                   7
##########                         Heavy_Atoms:                  24
##########                    Molecular_Weight:             326.442
##########                DOCK_Rotatable_Bonds:                   7
##########                       Formal_Charge:           0.0299998
##########                     HBond_Acceptors:                   5
##########                        HBond_Donors:                   0
##########                         Heavy_Atoms:                  24
##########                          Grid_Score:          -29.482107
##########                     Grid_vdw_energy:          -29.401991
##########                      Grid_es_energy:           -0.080117
##########           Internal_energy_repulsive:           12.223303

@<TRIPOS>MOLECULE
ZINC001085817863
 50 52 1 0 0
SMALL
USER_CHARGES


@<TRIPOS>ATOM
      1 C1        -13.3684    0.1218   59.5006 C.3     1  ZINC001085817863   -0.1400
      2 C2        -12.9239   -1.2262   60.0715 C.3     1  ZINC001085817863   -0.0700
      3 C3        -13.6205   -2.3393   59.3320 C.2     1  ZINC001085817863    0.1100
      4 C4        -13.1514   -2.9739   58.2150 C.2     1  ZINC001085817863   -0.2400
      5 C5        -11.8857   -2.7071   57.5113 C.2     1  ZINC001085817863    0.6000
      6 O6        -10.8343   -3.0981   57.9815 O.2     1  ZINC001085817863   -0.5300
      7 N7        -11.8922   -2.0297   56.3461 N.am    1  ZINC001085817863   -0.6100
      8 C8        -13.1585   -1.5588   55.7797 C.3     1  ZINC001085817863    0.0800
      9 C9        -10.6330   -1.7643   55.6461 C.3     1  ZINC001085817863    0.1300
     10 C10       -10.4976   -0.2617   55.3919 C.3     1  ZINC001085817863    0.0100
     11 H11       -11.3680    0.1609   54.8900 H       1  ZINC001085817863    0.0800
     12 C12       -10.0615    0.5315   56.6317 C.3     1  ZINC001085817863   -0.1400
     13 C13        -9.2179    1.3184   55.6190 C.3     1  ZINC001085817863    0.0000
     14 N14        -9.2172    0.1150   54.7643 N.3     1  ZINC001085817863   -0.4400
     15 C15        -9.4063    0.4722   53.3520 C.3     1  ZINC001085817863    0.0700
     16 C16        -8.0624    0.6053   52.6833 C.ar    1  ZINC001085817863   -0.1300
     17 C17        -7.3378    1.7822   52.7917 C.ar    1  ZINC001085817863   -0.0700
     18 C18        -6.1057    1.8592   52.1601 C.ar    1  ZINC001085817863   -0.1700
     19 C19        -5.6442    0.7682   51.4487 C.ar    1  ZINC001085817863    0.1000
     20 N20        -6.3609   -0.3359   51.3668 N.ar    1  ZINC001085817863   -0.4800
     21 C21        -7.5340   -0.4467   51.9588 C.ar    1  ZINC001085817863    0.1200
     22 C22       -14.1636   -3.9745   57.8599 C.2     1  ZINC001085817863   -0.1900
     23 C23       -15.1425   -3.8636   58.7753 C.2     1  ZINC001085817863   -0.0200
     24 N24       -14.8079   -2.8820   59.6621 N.pl3   1  ZINC001085817863   -0.4400
     25 C25       -15.6280   -2.4703   60.8040 C.3     1  ZINC001085817863    0.0600
     26 H26       -12.8646    0.9270   60.0355 H       1  ZINC001085817863    0.0600
     27 H27       -13.1104    0.1713   58.4428 H       1  ZINC001085817863    0.0500
     28 H28       -14.4471    0.2278   59.6167 H       1  ZINC001085817863    0.0600
     29 H29       -11.8454   -1.3322   59.9554 H       1  ZINC001085817863    0.0600
     30 H30       -13.1820   -1.2756   61.1294 H       1  ZINC001085817863    0.1100
     31 H31       -13.6526   -0.8991   56.4929 H       1  ZINC001085817863    0.0700
     32 H32       -12.9631   -1.0143   54.8559 H       1  ZINC001085817863    0.0700
     33 H33       -13.8021   -2.4129   55.5688 H       1  ZINC001085817863    0.0600
     34 H34        -9.7981   -2.1060   56.2579 H       1  ZINC001085817863    0.0800
     35 H35       -10.6272   -2.2957   54.6943 H       1  ZINC001085817863    0.1000
     36 H36       -10.8600    1.1118   57.0939 H       1  ZINC001085817863    0.0800
     37 H37        -9.4760   -0.0456   57.3476 H       1  ZINC001085817863    0.1000
     38 H38        -9.7462    2.1632   55.1771 H       1  ZINC001085817863    0.0700
     39 H39        -8.2297    1.5870   55.9926 H       1  ZINC001085817863    0.0800
     40 H40        -9.9842   -0.3066   52.8545 H       1  ZINC001085817863    0.0900
     41 H41        -9.9407    1.4199   53.2853 H       1  ZINC001085817863    0.0500
     42 H42        -7.7240    2.6192   53.3544 H       1  ZINC001085817863    0.1300
     43 H43        -5.5143    2.7608   52.2231 H       1  ZINC001085817863    0.1300
     44 H44        -4.6858    0.8203   50.9536 H       1  ZINC001085817863    0.1600
     45 H45        -8.0922   -1.3668   51.8693 H       1  ZINC001085817863    0.1500
     46 H46       -14.1296   -4.6631   57.0286 H       1  ZINC001085817863    0.1600
     47 H47       -16.0443   -4.4571   58.8060 H       1  ZINC001085817863    0.1600
     48 H48       -15.3582   -3.0635   61.6778 H       1  ZINC001085817863    0.0800
     49 H49       -15.4548   -1.4148   61.0140 H       1  ZINC001085817863    0.0900
     50 H50       -16.6811   -2.6262   60.5701 H       1  ZINC001085817863    0.0900
@<TRIPOS>BOND
     1     1     2    1
     2     1    26    1
     3     1    27    1
     4     1    28    1
     5     2     3    1
     6     2    29    1
     7     2    30    1
     8     3    24    1
     9     3     4    2
    10     4     5    1
    11     4    22    1
    12     5     6    2
    13     5     7   am
    14     7     8    1
    15     7     9    1
    16     8    31    1
    17     8    32    1
    18     8    33    1
    19     9    10    1
    20     9    34    1
    21     9    35    1
    22    10    11    1
    23    10    14    1
    24    10    12    1
    25    12    13    1
    26    12    36    1
    27    12    37    1
    28    13    14    1
    29    13    38    1
    30    13    39    1
    31    14    15    1
    32    15    16    1
    33    15    40    1
    34    15    41    1
    35    16    21   ar
    36    16    17   ar
    37    17    18   ar
    38    17    42    1
    39    18    19   ar
    40    18    43    1
    41    19    20   ar
    42    19    44    1
    43    20    21   ar
    44    21    45    1
    45    22    23    2
    46    22    46    1
    47    23    24    1
    48    23    47    1
    49    24    25    1
    50    25    48    1
    51    25    49    1
    52    25    50    1
@<TRIPOS>SUBSTRUCTURE
     1 ZINC001085817863        1 TEMP              0 ****  ****    0 ROOT


##########                                Name:    ZINC000022858610
##########                DOCK_Rotatable_Bonds:                   9
##########                         Heavy_Atoms:                  26
##########                    Molecular_Weight:             369.343
##########                DOCK_Rotatable_Bonds:                   9
##########                       Formal_Charge:          0.00999956
##########                     HBond_Acceptors:                   9
##########                        HBond_Donors:                   2
##########                         Heavy_Atoms:                  26
##########                          Grid_Score:          -29.469139
##########                     Grid_vdw_energy:          -24.670942
##########                      Grid_es_energy:           -4.798198
##########           Internal_energy_repulsive:           20.885914

@<TRIPOS>MOLECULE
ZINC000022858610
 44 45 1 0 0
SMALL
USER_CHARGES


@<TRIPOS>ATOM
      1 C1         -8.6362    2.3564   59.0876 C.3     1  <0>         0.0100
      2 N2         -7.5048    1.5800   58.5633 N.3     1  <0>        -0.5300
      3 C3         -7.6656    0.1499   58.8587 C.3     1  <0>         0.0200
      4 C4         -7.3358    1.8038   57.1214 C.3     1  <0>         0.1500
      5 H5         -6.6737    1.0418   56.7105 H       1  <0>         0.1200
      6 C6         -6.7269    3.1879   56.8882 C.3     1  <0>         0.1300
      7 N7         -5.7813    3.1236   55.7711 N.am    1  <0>        -0.6800
      8 C8         -5.5005    4.2341   55.0611 C.2     1  <0>         0.5100
      9 O9         -6.0297    5.2878   55.3479 O.2     1  <0>        -0.5100
     10 C10        -4.5377    4.1680   53.9211 C.2     1  <0>         0.5200
     11 O11        -4.1578    5.1899   53.3876 O.2     1  <0>        -0.4900
     12 N12        -4.0908    2.9737   53.4848 N.am    1  <0>        -0.6500
     13 C13        -3.1901    2.9119   52.4183 C.ar    1  <0>         0.1900
     14 C14        -1.8551    3.2417   52.6146 C.ar    1  <0>        -0.1200
     15 C15        -0.9676    3.1796   51.5581 C.ar    1  <0>        -0.0700
     16 C16        -1.4067    2.7897   50.3063 C.ar    1  <0>        -0.1300
     17 C17        -2.7354    2.4611   50.1072 C.ar    1  <0>        -0.0500
     18 C18        -3.6268    2.5150   51.1603 C.ar    1  <0>        -0.2100
     19 C19        -5.0743    2.1568   50.9426 C.3     1  <0>         0.5100
     20 F20        -5.8704    3.2891   51.1449 F       1  <0>        -0.1700
     21 F21        -5.2480    1.6923   49.6345 F       1  <0>        -0.1800
     22 F22        -5.4482    1.1563   51.8462 F       1  <0>        -0.1700
     23 C23        -8.6776    1.7240   56.4400 C.2     1  <0>        -0.0500
     24 C24        -9.0900    2.4998   55.4215 C.2     1  <0>        -0.1900
     25 C25       -10.4018    2.0850   55.0958 C.2     1  <0>        -0.2100
     26 C26       -10.7126    1.0806   55.9348 C.2     1  <0>        -0.0400
     27 O27        -9.6623    0.8624   56.7430 O.3     1  <0>        -0.1700
     28 H28        -8.6260    2.3231   60.1771 H       1  <0>         0.0700
     29 H29        -8.5522    3.3910   58.7550 H       1  <0>         0.0700
     30 H30        -9.5701    1.9311   58.7200 H       1  <0>         0.0500
     31 H31        -8.5835   -0.2153   58.3980 H       1  <0>         0.0300
     32 H32        -6.8143   -0.4015   58.4596 H       1  <0>         0.0700
     33 H33        -7.7185    0.0056   59.9378 H       1  <0>         0.0800
     34 H34        -7.5193    3.8986   56.6528 H       1  <0>         0.0900
     35 H35        -6.2044    3.5115   57.7883 H       1  <0>         0.0800
     36 H36        -5.3572    2.2816   55.5425 H       1  <0>         0.4200
     37 H37        -4.3944    2.1571   53.9112 H       1  <0>         0.4300
     38 H38        -1.5116    3.5466   53.5920 H       1  <0>         0.1500
     39 H39         0.0705    3.4362   51.7099 H       1  <0>         0.1400
     40 H40        -0.7105    2.7420   49.4820 H       1  <0>         0.1400
     41 H41        -3.0751    2.1577   49.1280 H       1  <0>         0.1500
     42 H42        -8.5273    3.2885   54.9444 H       1  <0>         0.1500
     43 H43       -11.0333    2.4960   54.3220 H       1  <0>         0.1500
     44 H44       -11.6467    0.5388   55.9528 H       1  <0>         0.2000
@<TRIPOS>BOND
     1     1     2    1
     2     1    28    1
     3     1    29    1
     4     1    30    1
     5     2     3    1
     6     2     4    1
     7     3    31    1
     8     3    32    1
     9     3    33    1
    10     4     5    1
    11     4     6    1
    12     4    23    1
    13     6     7    1
    14     6    34    1
    15     6    35    1
    16     7     8   am
    17     7    36    1
    18     8     9    2
    19     8    10    1
    20    10    11    2
    21    10    12   am
    22    12    13    1
    23    12    37    1
    24    13    18   ar
    25    13    14   ar
    26    14    15   ar
    27    14    38    1
    28    15    16   ar
    29    15    39    1
    30    16    17   ar
    31    16    40    1
    32    17    18   ar
    33    17    41    1
    34    18    19    1
    35    19    20    1
    36    19    21    1
    37    19    22    1
    38    23    27    1
    39    23    24    2
    40    24    25    1
    41    24    42    1
    42    25    26    2
    43    25    43    1
    44    26    27    1
    45    26    44    1
@<TRIPOS>SUBSTRUCTURE
     1 <0>         1 TEMP              0 ****  ****    0 ROOT


##########                                Name:    ZINC000550011575
##########                DOCK_Rotatable_Bonds:                   6
##########                         Heavy_Atoms:                  28
##########                    Molecular_Weight:             423.935
##########                DOCK_Rotatable_Bonds:                   6
##########                       Formal_Charge:          -0.0100002
##########                     HBond_Acceptors:                   7
##########                        HBond_Donors:                   0
##########                         Heavy_Atoms:                  28
##########                          Grid_Score:          -29.463188
##########                     Grid_vdw_energy:          -29.600660
##########                      Grid_es_energy:            0.137472
##########           Internal_energy_repulsive:           37.726551

@<TRIPOS>MOLECULE
ZINC000550011575
 51 53 1 0 0
SMALL
USER_CHARGES


@<TRIPOS>ATOM
      1 C1        -12.8289    0.6362   54.7781 C.3     1  ZINC000550011575   -0.1400
      2 C2        -11.5605    0.0152   55.3665 C.3     1  ZINC000550011575   -0.6100
      3 H3        -11.1462    0.6824   56.1224 H       1  ZINC000550011575    0.1500
      4 C4        -11.8967   -1.3115   55.9974 C.2     1  ZINC000550011575    0.5400
      5 O5        -12.8062   -1.9805   55.5544 O.2     1  ZINC000550011575   -0.5100
      6 N6        -11.1869   -1.7544   57.0540 N.am    1  ZINC000550011575   -0.6000
      7 C7        -10.0895   -0.9454   57.5903 C.3     1  ZINC000550011575    0.0600
      8 C8        -11.5126   -3.0449   57.6662 C.3     1  ZINC000550011575    0.1500
      9 C9        -12.9112   -2.9969   58.2256 C.ar    1  ZINC000550011575   -0.1500
     10 C10       -13.9358   -3.6745   57.5877 C.ar    1  ZINC000550011575    0.1400
     11 F11       -13.6827   -4.3791   56.4631 F       1  ZINC000550011575   -0.1100
     12 C12       -15.2204   -3.6300   58.1031 C.ar    1  ZINC000550011575   -0.1500
     13 C13       -15.4787   -2.9095   59.2536 C.ar    1  ZINC000550011575   -0.0700
     14 C14       -14.4553   -2.2328   59.8908 C.ar    1  ZINC000550011575   -0.1300
     15 C15       -13.1705   -2.2804   59.3802 C.ar    1  ZINC000550011575    0.0000
     16 Cl16      -11.8860   -1.4308   60.1815 Cl      1  ZINC000550011575   -0.0500
     17 S17       -10.3411   -0.2346   54.0469 S.o2    1  ZINC000550011575    2.4500
     18 O18        -9.8095   -1.5472   54.1641 O.2     1  ZINC000550011575   -0.9200
     19 O19       -10.9186    0.1725   52.8140 O.2     1  ZINC000550011575   -0.9100
     20 C20        -9.0490    0.9550   54.5005 C.3     1  ZINC000550011575   -0.5300
     21 H21        -8.5395    0.6070   55.3991 H       1  ZINC000550011575    0.1500
     22 C22        -9.6900    2.3130   54.7792 C.3     1  ZINC000550011575   -0.1100
     23 C23        -8.5735    3.3503   54.9465 C.3     1  ZINC000550011575   -0.1100
     24 C24        -7.9185    3.5772   53.5855 C.3     1  ZINC000550011575   -0.0900
     25 C25        -7.5277    2.2635   52.9605 C.ar    1  ZINC000550011575   -0.0600
     26 C26        -6.6002    2.2895   51.9274 C.ar    1  ZINC000550011575   -0.1200
     27 C27        -6.2053    1.1204   51.3101 C.ar    1  ZINC000550011575   -0.1100
     28 C28        -6.7374   -0.0869   51.7222 C.ar    1  ZINC000550011575   -0.1100
     29 C29        -7.6573   -0.1151   52.7502 C.ar    1  ZINC000550011575   -0.1500
     30 C30        -8.0537    1.0608   53.3748 C.ar    1  ZINC000550011575   -0.0800
     31 H31       -12.6221    1.6610   54.4693 H       1  ZINC000550011575    0.0900
     32 H32       -13.1513    0.0546   53.9145 H       1  ZINC000550011575    0.0900
     33 H33       -13.6168    0.6357   55.5312 H       1  ZINC000550011575    0.0800
     34 H34       -10.4738   -0.2768   58.3605 H       1  ZINC000550011575    0.0700
     35 H35        -9.3328   -1.6004   58.0221 H       1  ZINC000550011575    0.0800
     36 H36        -9.6455   -0.3574   56.7871 H       1  ZINC000550011575    0.0700
     37 H37       -11.4493   -3.8305   56.9132 H       1  ZINC000550011575    0.1000
     38 H38       -10.8068   -3.2543   58.4700 H       1  ZINC000550011575    0.1100
     39 H39       -16.0203   -4.1581   57.6057 H       1  ZINC000550011575    0.1500
     40 H40       -16.4807   -2.8748   59.6551 H       1  ZINC000550011575    0.1500
     41 H41       -14.6584   -1.6697   60.7898 H       1  ZINC000550011575    0.1400
     42 H42       -10.3306    2.5949   53.9436 H       1  ZINC000550011575    0.0800
     43 H43       -10.2810    2.2592   55.6935 H       1  ZINC000550011575    0.0900
     44 H44        -8.9943    4.2870   55.3120 H       1  ZINC000550011575    0.0800
     45 H45        -7.8314    2.9800   55.6539 H       1  ZINC000550011575    0.0700
     46 H46        -8.6207    4.0922   52.9300 H       1  ZINC000550011575    0.0800
     47 H47        -7.0286    4.1934   53.7131 H       1  ZINC000550011575    0.0800
     48 H48        -6.1847    3.2326   51.6043 H       1  ZINC000550011575    0.1300
     49 H49        -5.4832    1.1486   50.5075 H       1  ZINC000550011575    0.1300
     50 H50        -6.4343   -1.0051   51.2409 H       1  ZINC000550011575    0.1300
     51 H51        -8.0730   -1.0587   53.0711 H       1  ZINC000550011575    0.1700
@<TRIPOS>BOND
     1     1     2    1
     2     1    31    1
     3     1    32    1
     4     1    33    1
     5     2     3    1
     6     2     4    1
     7     2    17    1
     8     4     5    2
     9     4     6   am
    10     6     7    1
    11     6     8    1
    12     7    34    1
    13     7    35    1
    14     7    36    1
    15     8     9    1
    16     8    37    1
    17     8    38    1
    18     9    15   ar
    19     9    10   ar
    20    10    11    1
    21    10    12   ar
    22    12    13   ar
    23    12    39    1
    24    13    14   ar
    25    13    40    1
    26    14    15   ar
    27    14    41    1
    28    15    16    1
    29    17    18    2
    30    17    19    2
    31    17    20    1
    32    20    21    1
    33    20    30    1
    34    20    22    1
    35    22    23    1
    36    22    42    1
    37    22    43    1
    38    23    24    1
    39    23    44    1
    40    23    45    1
    41    24    25    1
    42    24    46    1
    43    24    47    1
    44    25    30   ar
    45    25    26   ar
    46    26    27   ar
    47    26    48    1
    48    27    28   ar
    49    27    49    1
    50    28    29   ar
    51    28    50    1
    52    29    30   ar
    53    29    51    1
@<TRIPOS>SUBSTRUCTURE
     1 ZINC000550011575        1 TEMP              0 ****  ****    0 ROOT


##########                                Name:    ZINC000859202493
##########                DOCK_Rotatable_Bonds:                  11
##########                         Heavy_Atoms:                  25
##########                    Molecular_Weight:             382.404
##########                DOCK_Rotatable_Bonds:                  11
##########                       Formal_Charge:          -0.0200009
##########                     HBond_Acceptors:                  10
##########                        HBond_Donors:                   3
##########                         Heavy_Atoms:                  25
##########                          Grid_Score:          -29.452494
##########                     Grid_vdw_energy:          -28.672878
##########                      Grid_es_energy:           -0.779616
##########           Internal_energy_repulsive:           24.529699

@<TRIPOS>MOLECULE
ZINC000859202493
 46 46 1 0 0
SMALL
USER_CHARGES


@<TRIPOS>ATOM
      1 C1         -8.8474    6.5960   48.4487 C.3     1  ZINC000859202493   -0.1500
      2 C2         -8.4783    6.2587   49.8946 C.3     1  ZINC000859202493   -0.1200
      3 C3         -8.4242    4.7393   50.0659 C.3     1  ZINC000859202493   -0.1000
      4 H4         -7.6743    4.3242   49.3925 H       1  ZINC000859202493    0.0700
      5 C5         -9.7928    4.1398   49.7369 C.3     1  ZINC000859202493   -0.1600
      6 C6         -8.0538    4.4019   51.5116 C.3     1  ZINC000859202493   -0.1200
      7 C7         -6.6026    3.9206   51.5673 C.3     1  ZINC000859202493    0.1600
      8 H8         -6.3517    3.6404   52.5904 H       1  ZINC000859202493    0.1000
      9 C9         -5.6741    5.0451   51.1043 C.3     1  ZINC000859202493    0.0500
     10 O10        -5.7634    6.1421   52.0158 O.3     1  ZINC000859202493   -0.5700
     11 N11        -6.4390    2.7597   50.6889 N.am    1  ZINC000859202493   -1.1000
     12 S12        -5.4732    1.4979   51.1554 S.o2    1  ZINC000859202493    2.6900
     13 O13        -5.9318    1.0947   52.4385 O.2     1  ZINC000859202493   -0.9500
     14 O14        -5.4002    0.6161   50.0436 O.2     1  ZINC000859202493   -0.9500
     15 C15        -3.8494    2.1419   51.3871 C.ar    1  ZINC000859202493   -0.6600
     16 C16        -3.5201    2.7746   52.5715 C.ar    1  ZINC000859202493   -0.0300
     17 C17        -2.2469    3.2819   52.7571 C.ar    1  ZINC000859202493   -0.1100
     18 C18        -1.3003    3.1573   51.7595 C.ar    1  ZINC000859202493   -0.0600
     19 C19        -1.6279    2.5219   50.5687 C.ar    1  ZINC000859202493    0.1200
     20 N20        -0.6708    2.3937   49.5560 N.am    1  ZINC000859202493   -0.6500
     21 C21         0.4629    1.7014   49.7839 C.2     1  ZINC000859202493    0.4800
     22 O22         0.6535    1.1894   50.8668 O.2     1  ZINC000859202493   -0.4500
     23 C23         1.4936    1.5633   48.6933 C.3     1  ZINC000859202493    0.4600
     24 F24         1.7817    2.8249   48.1616 F       1  ZINC000859202493   -0.1500
     25 F25         2.6609    1.0030   49.2230 F       1  ZINC000859202493   -0.1600
     26 F26         0.9952    0.7341   47.6828 F       1  ZINC000859202493   -0.1600
     27 C27        -2.9054    2.0091   50.3875 C.ar    1  ZINC000859202493   -0.0300
     28 H28        -8.8860    7.6784   48.3266 H       1  ZINC000859202493    0.0500
     29 H29        -8.0968    6.1811   47.7758 H       1  ZINC000859202493    0.0500
     30 H30        -9.8221    6.1689   48.2133 H       1  ZINC000859202493    0.0600
     31 H31        -7.5034    6.6858   50.1299 H       1  ZINC000859202493    0.0600
     32 H32        -9.2288    6.6736   50.5674 H       1  ZINC000859202493    0.0600
     33 H33        -9.7542    3.0573   49.8590 H       1  ZINC000859202493    0.0500
     34 H34       -10.5426    4.5549   50.4104 H       1  ZINC000859202493    0.0600
     35 H35       -10.0567    4.3801   48.7071 H       1  ZINC000859202493    0.0600
     36 H36        -8.1658    5.2909   52.1323 H       1  ZINC000859202493    0.0800
     37 H37        -8.7119    3.6155   51.8812 H       1  ZINC000859202493    0.0800
     38 H38        -4.6476    4.6799   51.0749 H       1  ZINC000859202493    0.0600
     39 H39        -5.9712    5.3749   50.1088 H       1  ZINC000859202493    0.0600
     40 H40        -5.6675    5.8906   52.9445 H       1  ZINC000859202493    0.3800
     41 H41        -6.8965    2.7299   49.8341 H       1  ZINC000859202493    0.4200
     42 H42        -4.2586    2.8732   53.3532 H       1  ZINC000859202493    0.1500
     43 H43        -1.9929    3.7762   53.6832 H       1  ZINC000859202493    0.1400
     44 H44        -0.3063    3.5540   51.9049 H       1  ZINC000859202493    0.1400
     45 H45        -0.8232    2.8031   48.6899 H       1  ZINC000859202493    0.4200
     46 H46        -3.1633    1.5144   49.4627 H       1  ZINC000859202493    0.1500
@<TRIPOS>BOND
     1     1     2    1
     2     1    28    1
     3     1    29    1
     4     1    30    1
     5     2     3    1
     6     2    31    1
     7     2    32    1
     8     3     4    1
     9     3     5    1
    10     3     6    1
    11     5    33    1
    12     5    34    1
    13     5    35    1
    14     6     7    1
    15     6    36    1
    16     6    37    1
    17     7     8    1
    18     7     9    1
    19     7    11    1
    20     9    10    1
    21     9    38    1
    22     9    39    1
    23    10    40    1
    24    11    12   am
    25    11    41    1
    26    12    13    2
    27    12    14    2
    28    12    15    1
    29    15    27   ar
    30    15    16   ar
    31    16    17   ar
    32    16    42    1
    33    17    18   ar
    34    17    43    1
    35    18    19   ar
    36    18    44    1
    37    19    20    1
    38    19    27   ar
    39    20    21   am
    40    20    45    1
    41    21    22    2
    42    21    23    1
    43    23    24    1
    44    23    25    1
    45    23    26    1
    46    27    46    1
@<TRIPOS>SUBSTRUCTURE
     1 ZINC000859202493        1 TEMP              0 ****  ****    0 ROOT


##########                                Name:    ZINC000279452407
##########                DOCK_Rotatable_Bonds:                   6
##########                         Heavy_Atoms:                  24
##########                    Molecular_Weight:              375.47
##########                DOCK_Rotatable_Bonds:                   6
##########                       Formal_Charge:          0.00999929
##########                     HBond_Acceptors:                  10
##########                        HBond_Donors:                   3
##########                         Heavy_Atoms:                  24
##########                          Grid_Score:          -29.438801
##########                     Grid_vdw_energy:          -26.839159
##########                      Grid_es_energy:           -2.599643
##########           Internal_energy_repulsive:           27.741636

@<TRIPOS>MOLECULE
ZINC000279452407
 45 47 1 0 0
SMALL
USER_CHARGES


@<TRIPOS>ATOM
      1 C1        -14.0119    0.1714   58.8849 C.3     1  ZINC000279452407   -0.1600
      2 C2        -14.3103   -1.0325   57.9890 C.3     1  ZINC000279452407    0.0600
      3 H3        -13.7403   -0.9562   57.0631 H       1  ZINC000279452407    0.0700
      4 O4        -15.7178   -1.0874   57.6949 O.3     1  ZINC000279452407   -0.3700
      5 C5        -16.0777   -2.4837   57.6126 C.3     1  ZINC000279452407    0.0500
      6 C6        -15.2675   -3.1363   58.7630 C.3     1  ZINC000279452407   -0.1400
      7 C7        -13.9465   -2.3324   58.7214 C.3     1  ZINC000279452407    0.0700
      8 C8        -13.4773   -2.0279   60.1418 C.3     1  ZINC000279452407    0.1100
      9 N9        -12.1365   -1.4232   60.0702 N.am    1  ZINC000279452407   -0.6300
     10 C10       -11.8512   -0.2847   60.7329 C.2     1  ZINC000279452407    0.7200
     11 O11       -12.7074    0.2595   61.4029 O.2     1  ZINC000279452407   -0.5800
     12 N12       -10.6168    0.2504   60.6528 N.am    1  ZINC000279452407   -0.7500
     13 C13       -10.3068    1.4877   61.3731 C.3     1  ZINC000279452407    0.2000
     14 C14        -9.9890    1.1659   62.8107 C.2     1  ZINC000279452407   -0.1700
     15 C15        -9.7884    2.0665   63.7740 C.2     1  ZINC000279452407   -0.1400
     16 C16        -9.5104    1.5343   65.0213 C.2     1  ZINC000279452407    0.0100
     17 C17        -9.4854    0.2016   65.0708 C.2     1  ZINC000279452407   -0.7900
     18 S18        -9.1610   -0.7552   66.5145 S.o2    1  ZINC000279452407    2.7300
     19 N19        -7.5551   -0.5707   66.8742 N.am    1  ZINC000279452407   -1.2500
     20 O20        -9.8825   -0.1409   67.5734 O.2     1  ZINC000279452407   -0.9600
     21 O21        -9.3350   -2.1153   66.1418 O.2     1  ZINC000279452407   -0.9500
     22 S22        -9.8337   -0.4545   63.4766 S.3     1  ZINC000279452407    0.2500
     23 C23       -11.1176   -2.1010   59.2527 C.3     1  ZINC000279452407    0.0700
     24 C24       -11.7080   -2.3675   57.8634 C.3     1  ZINC000279452407    0.0400
     25 O25       -12.9537   -3.0565   58.0052 O.3     1  ZINC000279452407   -0.3600
     26 H26       -12.9350    0.2588   59.0292 H       1  ZINC000279452407    0.0700
     27 H27       -14.3901    1.0782   58.4131 H       1  ZINC000279452407    0.0600
     28 H28       -14.4979    0.0346   59.8510 H       1  ZINC000279452407    0.0800
     29 H29       -17.1477   -2.6142   57.7749 H       1  ZINC000279452407    0.1000
     30 H30       -15.7810   -2.9003   56.6501 H       1  ZINC000279452407    0.0700
     31 H31       -15.7746   -3.0060   59.7191 H       1  ZINC000279452407    0.1000
     32 H32       -15.0857   -4.1919   58.5610 H       1  ZINC000279452407    0.1000
     33 H33       -14.1689   -1.3306   60.6145 H       1  ZINC000279452407    0.1200
     34 H34       -13.4322   -2.9517   60.7186 H       1  ZINC000279452407    0.0800
     35 H35        -9.9337   -0.1838   60.1182 H       1  ZINC000279452407    0.4000
     36 H36        -9.4468    1.9719   60.9106 H       1  ZINC000279452407    0.1000
     37 H37       -11.1661    2.1571   61.3320 H       1  ZINC000279452407    0.0900
     38 H38        -9.8385    3.1303   63.5944 H       1  ZINC000279452407    0.1600
     39 H39        -9.3272    2.1515   65.8885 H       1  ZINC000279452407    0.1600
     40 H40        -6.8801   -0.8370   66.2304 H       1  ZINC000279452407    0.4200
     41 H41        -7.2894   -0.1964   67.7287 H       1  ZINC000279452407    0.4200
     42 H42       -10.2382   -1.4637   59.1610 H       1  ZINC000279452407    0.0900
     43 H43       -10.8417   -3.0459   59.7208 H       1  ZINC000279452407    0.0900
     44 H44       -11.8723   -1.4201   57.3499 H       1  ZINC000279452407    0.0600
     45 H45       -11.0165   -2.9806   57.2854 H       1  ZINC000279452407    0.1100
@<TRIPOS>BOND
     1     1     2    1
     2     1    26    1
     3     1    27    1
     4     1    28    1
     5     2     3    1
     6     2     7    1
     7     2     4    1
     8     4     5    1
     9     5     6    1
    10     5    29    1
    11     5    30    1
    12     6     7    1
    13     6    31    1
    14     6    32    1
    15     7    25    1
    16     7     8    1
    17     8     9    1
    18     8    33    1
    19     8    34    1
    20     9    10   am
    21     9    23    1
    22    10    11    2
    23    10    12   am
    24    12    13    1
    25    12    35    1
    26    13    14    1
    27    13    36    1
    28    13    37    1
    29    14    22    1
    30    14    15    2
    31    15    16    1
    32    15    38    1
    33    16    17    2
    34    16    39    1
    35    17    18    1
    36    17    22    1
    37    18    19   am
    38    18    20    2
    39    18    21    2
    40    19    40    1
    41    19    41    1
    42    23    24    1
    43    23    42    1
    44    23    43    1
    45    24    25    1
    46    24    44    1
    47    24    45    1
@<TRIPOS>SUBSTRUCTURE
     1 ZINC000279452407        1 TEMP              0 ****  ****    0 ROOT


##########                                Name:    ZINC001015666108
##########                DOCK_Rotatable_Bonds:                   7
##########                         Heavy_Atoms:                  25
##########                    Molecular_Weight:             346.429
##########                DOCK_Rotatable_Bonds:                   7
##########                       Formal_Charge:          -0.0199997
##########                     HBond_Acceptors:                   7
##########                        HBond_Donors:                   1
##########                         Heavy_Atoms:                  25
##########                          Grid_Score:          -29.432137
##########                     Grid_vdw_energy:          -29.134481
##########                      Grid_es_energy:           -0.297654
##########           Internal_energy_repulsive:           19.260221

@<TRIPOS>MOLECULE
ZINC001015666108
 51 53 1 0 0
SMALL
USER_CHARGES


@<TRIPOS>ATOM
      1 C1        -11.9415    4.3673   51.1962 C.3     1  ZINC001015666108   -0.1400
      2 C2        -10.4575    4.2296   51.5424 C.3     1  ZINC001015666108   -0.0700
      3 C3         -9.6244    4.6930   50.3752 C.2     1  ZINC001015666108   -0.0700
      4 C4         -8.3384    4.3287   50.0962 C.2     1  ZINC001015666108   -0.0900
      5 C5         -7.5126    3.4092   50.8857 C.2     1  ZINC001015666108    0.6100
      6 O6         -7.9534    2.9228   51.9105 O.2     1  ZINC001015666108   -0.5100
      7 N7         -6.2657    3.1026   50.4763 N.am    1  ZINC001015666108   -0.7200
      8 C8         -5.4402    2.1854   51.2659 C.3     1  ZINC001015666108    0.1400
      9 H9         -6.0709    1.5459   51.8835 H       1  ZINC001015666108    0.1100
     10 C10        -4.5529    1.3265   50.3359 C.3     1  ZINC001015666108   -0.1300
     11 C11        -3.2023    2.0857   50.3473 C.3     1  ZINC001015666108    0.0300
     12 N12        -3.0906    2.5595   51.7505 N.3     1  ZINC001015666108   -0.5100
     13 C13        -2.1468    3.6804   51.8541 C.3     1  ZINC001015666108    0.1700
     14 H14        -2.4514    4.4759   51.1741 H       1  ZINC001015666108    0.0900
     15 C15        -2.1405    4.2109   53.2892 C.3     1  ZINC001015666108   -0.1500
     16 C16        -0.7636    3.2080   51.4871 C.2     1  ZINC001015666108    0.1900
     17 N17        -0.3987    2.6697   50.3485 N.2     1  ZINC001015666108   -0.4800
     18 C18         0.9148    2.4099   50.4753 C.2     1  ZINC001015666108    0.1800
     19 C19         1.8053    1.7858   49.4320 C.3     1  ZINC001015666108    0.0000
     20 C20         2.9160    2.7683   49.0555 C.3     1  ZINC001015666108   -0.1500
     21 C21         2.4261    0.5043   49.9918 C.3     1  ZINC001015666108   -0.1500
     22 N22         1.2750    2.7962   51.6625 N.2     1  ZINC001015666108   -0.3800
     23 O23         0.3268    3.2630   52.2579 O.3     1  ZINC001015666108    0.1000
     24 C24        -4.4556    2.9764   52.1470 C.3     1  ZINC001015666108    0.0300
     25 O25        -7.9604    4.9629   48.9670 O.3     1  ZINC001015666108   -0.1700
     26 C26        -8.9720    5.7197   48.5223 C.2     1  ZINC001015666108    0.0000
     27 C27       -10.0221    5.5779   49.3609 C.2     1  ZINC001015666108   -0.2200
     28 H28       -12.5441    4.0321   52.0404 H       1  ZINC001015666108    0.0600
     29 H29       -12.1686    5.4109   50.9792 H       1  ZINC001015666108    0.0600
     30 H30       -12.1689    3.7567   50.3224 H       1  ZINC001015666108    0.0500
     31 H31       -10.2301    4.8402   52.4162 H       1  ZINC001015666108    0.0900
     32 H32       -10.2303    3.1859   51.7593 H       1  ZINC001015666108    0.0700
     33 H33        -5.9148    3.4893   49.6588 H       1  ZINC001015666108    0.4000
     34 H34        -4.4332    0.3204   50.7381 H       1  ZINC001015666108    0.0900
     35 H35        -4.9684    1.2934   49.3288 H       1  ZINC001015666108    0.0800
     36 H36        -2.3807    1.4128   50.1020 H       1  ZINC001015666108    0.0800
     37 H37        -3.2293    2.9291   49.6574 H       1  ZINC001015666108    0.0500
     38 H38        -1.8359    3.4153   53.9693 H       1  ZINC001015666108    0.0800
     39 H39        -1.4402    5.0425   53.3661 H       1  ZINC001015666108    0.0700
     40 H40        -3.1409    4.5526   53.5547 H       1  ZINC001015666108    0.0800
     41 H41         1.2158    1.5473   48.5467 H       1  ZINC001015666108    0.1000
     42 H42         3.5054    3.0070   49.9408 H       1  ZINC001015666108    0.0600
     43 H43         3.5601    2.3170   48.3010 H       1  ZINC001015666108    0.0700
     44 H44         2.4738    3.6813   48.6568 H       1  ZINC001015666108    0.0600
     45 H45         3.0156    0.7428   50.8771 H       1  ZINC001015666108    0.0600
     46 H46         1.6348   -0.1957   50.2599 H       1  ZINC001015666108    0.0600
     47 H47         3.0702    0.0529   49.2371 H       1  ZINC001015666108    0.0700
     48 H48        -4.5815    4.0455   51.9767 H       1  ZINC001015666108    0.0600
     49 H49        -4.6245    2.7427   53.1982 H       1  ZINC001015666108    0.1000
     50 H50        -8.9530    6.3380   47.6371 H       1  ZINC001015666108    0.2100
     51 H51       -10.9844    6.0601   49.2711 H       1  ZINC001015666108    0.1600
@<TRIPOS>BOND
     1     1     2    1
     2     1    28    1
     3     1    29    1
     4     1    30    1
     5     2     3    1
     6     2    31    1
     7     2    32    1
     8     3    27    1
     9     3     4    2
    10     4     5    1
    11     4    25    1
    12     5     6    2
    13     5     7   am
    14     7     8    1
    15     7    33    1
    16     8     9    1
    17     8    24    1
    18     8    10    1
    19    10    11    1
    20    10    34    1
    21    10    35    1
    22    11    12    1
    23    11    36    1
    24    11    37    1
    25    12    13    1
    26    12    24    1
    27    13    14    1
    28    13    15    1
    29    13    16    1
    30    15    38    1
    31    15    39    1
    32    15    40    1
    33    16    23    1
    34    16    17    2
    35    17    18    1
    36    18    19    1
    37    18    22    2
    38    19    20    1
    39    19    21    1
    40    19    41    1
    41    20    42    1
    42    20    43    1
    43    20    44    1
    44    21    45    1
    45    21    46    1
    46    21    47    1
    47    22    23    1
    48    24    48    1
    49    24    49    1
    50    25    26    1
    51    26    27    2
    52    26    50    1
    53    27    51    1
@<TRIPOS>SUBSTRUCTURE
     1 ZINC001015666108        1 TEMP              0 ****  ****    0 ROOT


##########                                Name:    ZINC001053792610
##########                DOCK_Rotatable_Bonds:                   5
##########                         Heavy_Atoms:                  25
##########                    Molecular_Weight:             347.374
##########                DOCK_Rotatable_Bonds:                   5
##########                       Formal_Charge:          -0.0400001
##########                     HBond_Acceptors:                   9
##########                        HBond_Donors:                   2
##########                         Heavy_Atoms:                  25
##########                          Grid_Score:          -29.365309
##########                     Grid_vdw_energy:          -28.663815
##########                      Grid_es_energy:           -0.701495
##########           Internal_energy_repulsive:            4.927849

@<TRIPOS>MOLECULE
ZINC001053792610
 46 49 1 0 0
SMALL
USER_CHARGES


@<TRIPOS>ATOM
      1 C1        -15.5909   -3.3036   58.4507 C.3     1  ZINC001053792610   -0.1000
      2 C2        -14.2288   -2.7669   58.8082 C.ar    1  ZINC001053792610    0.0800
      3 C3        -13.9419   -2.4249   60.1176 C.ar    1  ZINC001053792610    0.0600
      4 N4        -12.7475   -1.9542   60.4311 N.ar    1  ZINC001053792610   -0.4200
      5 C5        -11.8273   -1.8102   59.4940 C.ar    1  ZINC001053792610    0.0800
      6 C6        -10.4652   -1.2739   59.8515 C.3     1  ZINC001053792610    0.0700
      7 N7        -10.3151    0.0829   59.3087 N.3     1  ZINC001053792610   -0.4500
      8 C8         -9.6111    0.0588   58.0114 C.3     1  ZINC001053792610   -0.0100
      9 C9         -8.8312    1.2854   58.4805 C.3     1  ZINC001053792610    0.0800
     10 C10        -9.1307    0.7534   59.8804 C.3     1  ZINC001053792610   -0.0100
     11 C11        -7.3447    1.3040   58.0911 C.3     1  ZINC001053792610   -0.1500
     12 C12        -7.2974    2.4610   57.0536 C.3     1  ZINC001053792610    0.1100
     13 H13        -6.3184    2.9401   57.0442 H       1  ZINC001053792610    0.1200
     14 N14        -7.6615    1.9858   55.7165 N.am    1  ZINC001053792610   -0.7100
     15 C15        -7.2436    2.6578   54.6255 C.2     1  ZINC001053792610    0.5000
     16 O16        -6.5650    3.6552   54.7507 O.2     1  ZINC001053792610   -0.5100
     17 C17        -7.6196    2.1700   53.2502 C.3     1  ZINC001053792610    0.0800
     18 H18        -8.4421    2.7607   52.8471 H       1  ZINC001053792610    0.1300
     19 C19        -6.4027    2.2217   52.3061 C.3     1  ZINC001053792610    0.0500
     20 O20        -6.2012    0.8329   51.9142 O.3     1  ZINC001053792610   -0.3200
     21 C21        -7.1224    0.0642   52.5059 C.2     1  ZINC001053792610    0.6500
     22 O22        -7.1811   -1.1393   52.3499 O.2     1  ZINC001053792610   -0.5100
     23 N23        -7.9775    0.7438   53.2877 N.am    1  ZINC001053792610   -0.7100
     24 C24        -8.3799    3.4140   57.6222 C.3     1  ZINC001053792610    0.0400
     25 O25        -9.3994    2.5503   58.1561 O.3     1  ZINC001053792610   -0.3300
     26 C26       -12.1144   -2.1521   58.1841 C.ar    1  ZINC001053792610    0.0600
     27 N27       -13.3068   -2.6279   57.8717 N.ar    1  ZINC001053792610   -0.4400
     28 H28       -15.5902   -4.3894   58.5466 H       1  ZINC001053792610    0.0800
     29 H29       -16.3365   -2.8800   59.1236 H       1  ZINC001053792610    0.0800
     30 H30       -15.8312   -3.0297   57.4234 H       1  ZINC001053792610    0.0800
     31 H31       -14.6941   -2.5424   60.8835 H       1  ZINC001053792610    0.1700
     32 H32       -10.3592   -1.2451   60.9360 H       1  ZINC001053792610    0.1000
     33 H33        -9.6972   -1.9214   59.4285 H       1  ZINC001053792610    0.0600
     34 H34        -8.9884   -0.8247   57.8710 H       1  ZINC001053792610    0.0800
     35 H35       -10.2619    0.2570   57.1599 H       1  ZINC001053792610    0.0900
     36 H36        -9.3782    1.5351   60.5988 H       1  ZINC001053792610    0.1000
     37 H37        -8.3763    0.0605   60.2529 H       1  ZINC001053792610    0.0800
     38 H38        -6.7188    1.5295   58.9545 H       1  ZINC001053792610    0.1000
     39 H39        -7.0500    0.3592   57.6344 H       1  ZINC001053792610    0.1000
     40 H40        -8.2032    1.1874   55.6164 H       1  ZINC001053792610    0.4000
     41 H41        -6.6220    2.8370   51.4335 H       1  ZINC001053792610    0.1200
     42 H42        -5.5268    2.6013   52.8322 H       1  ZINC001053792610    0.1100
     43 H43        -8.7081    0.3562   53.7946 H       1  ZINC001053792610    0.4400
     44 H44        -7.9590    4.0358   58.4123 H       1  ZINC001053792610    0.0800
     45 H45        -8.7902    4.0373   56.8276 H       1  ZINC001053792610    0.0900
     46 H46       -11.3623   -2.0344   57.4180 H       1  ZINC001053792610    0.1600
@<TRIPOS>BOND
     1     1     2    1
     2     1    28    1
     3     1    29    1
     4     1    30    1
     5     2    27   ar
     6     2     3   ar
     7     3     4   ar
     8     3    31    1
     9     4     5   ar
    10     5     6    1
    11     5    26   ar
    12     6     7    1
    13     6    32    1
    14     6    33    1
    15     7    10    1
    16     7     8    1
    17     8     9    1
    18     8    34    1
    19     8    35    1
    20     9    25    1
    21     9    10    1
    22     9    11    1
    23    10    36    1
    24    10    37    1
    25    11    12    1
    26    11    38    1
    27    11    39    1
    28    12    13    1
    29    12    14    1
    30    12    24    1
    31    14    15   am
    32    14    40    1
    33    15    16    2
    34    15    17    1
    35    17    18    1
    36    17    23    1
    37    17    19    1
    38    19    20    1
    39    19    41    1
    40    19    42    1
    41    20    21    1
    42    21    22    2
    43    21    23   am
    44    23    43    1
    45    24    25    1
    46    24    44    1
    47    24    45    1
    48    26    27   ar
    49    26    46    1
@<TRIPOS>SUBSTRUCTURE
     1 ZINC001053792610        1 TEMP              0 ****  ****    0 ROOT


##########                                Name:    ZINC000470948647
##########                DOCK_Rotatable_Bonds:                   6
##########                         Heavy_Atoms:                  29
##########                    Molecular_Weight:             412.556
##########                DOCK_Rotatable_Bonds:                   6
##########                       Formal_Charge:           0.0100001
##########                     HBond_Acceptors:                   7
##########                        HBond_Donors:                   1
##########                         Heavy_Atoms:                  29
##########                          Grid_Score:          -29.360632
##########                     Grid_vdw_energy:          -27.778070
##########                      Grid_es_energy:           -1.582562
##########           Internal_energy_repulsive:           17.571518

@<TRIPOS>MOLECULE
ZINC000470948647
 57 60 1 0 0
SMALL
USER_CHARGES


@<TRIPOS>ATOM
      1 C1          1.3765    4.7191   54.4966 C.3     1  ZINC000470948647   -0.1100
      2 C2         -0.0207    4.2715   54.1524 C.ar    1  ZINC000470948647   -0.1000
      3 C3         -0.3957    4.1376   52.8284 C.ar    1  ZINC000470948647   -0.1100
      4 C4         -1.6757    3.7275   52.5096 C.ar    1  ZINC000470948647   -0.1100
      5 C5         -2.5859    3.4494   53.5205 C.ar    1  ZINC000470948647    0.1400
      6 N6         -3.8831    3.0334   53.2010 N.am    1  ZINC000470948647   -0.6700
      7 C7         -4.7104    3.8605   52.5318 C.2     1  ZINC000470948647    0.5100
      8 O8         -4.3305    4.9655   52.2065 O.2     1  ZINC000470948647   -0.4800
      9 C9         -6.1076    3.4126   52.1876 C.3     1  ZINC000470948647    0.1200
     10 H10        -6.7101    4.2916   51.9592 H       1  ZINC000470948647    0.1200
     11 C11        -6.0458    2.5126   50.9326 C.3     1  ZINC000470948647   -0.0700
     12 S12        -6.0722    0.8336   51.6898 S.3     1  ZINC000470948647   -0.2500
     13 C13        -7.1208    1.3530   53.1107 C.3     1  ZINC000470948647    0.1600
     14 N14        -6.6810    2.7397   53.3432 N.am    1  ZINC000470948647   -0.6000
     15 C15        -6.8032    3.3454   54.5410 C.2     1  ZINC000470948647    0.6300
     16 O16        -6.4264    4.4924   54.6834 O.2     1  ZINC000470948647   -0.5100
     17 C17        -7.3950    2.6156   55.6807 C.2     1  ZINC000470948647   -0.0100
     18 N18        -8.5346    1.9532   55.6814 N.2     1  ZINC000470948647   -0.2700
     19 N19        -8.7449    1.4389   56.8396 N.pl3   1  ZINC000470948647   -0.2700
     20 C20        -9.9164    0.6362   57.1998 C.3     1  ZINC000470948647    0.1500
     21 C21       -10.3925   -0.1490   55.9760 C.3     1  ZINC000470948647   -0.1300
     22 C22       -11.6159   -0.9873   56.3522 C.3     1  ZINC000470948647   -0.1200
     23 C23       -11.2417   -1.9626   57.4700 C.3     1  ZINC000470948647   -0.1300
     24 C24       -10.7656   -1.1774   58.6938 C.3     1  ZINC000470948647   -0.1200
     25 C25        -9.5422   -0.3391   58.3177 C.3     1  ZINC000470948647   -0.1300
     26 C26        -7.7308    1.7443   57.6774 C.2     1  ZINC000470948647   -0.0100
     27 C27        -6.8434    2.4894   56.9777 C.2     1  ZINC000470948647   -0.1700
     28 C28        -2.2060    3.5845   54.8497 C.ar    1  ZINC000470948647   -0.1100
     29 C29        -3.1906    3.2832   55.9499 C.3     1  ZINC000470948647   -0.1100
     30 C30        -0.9234    3.9901   55.1617 C.ar    1  ZINC000470948647   -0.1000
     31 H31         2.0255    3.8478   54.5858 H       1  ZINC000470948647    0.0700
     32 H32         1.7526    5.3733   53.7100 H       1  ZINC000470948647    0.0700
     33 H33         1.3621    5.2598   55.4429 H       1  ZINC000470948647    0.0700
     34 H34         0.3128    4.3540   52.0426 H       1  ZINC000470948647    0.1200
     35 H35        -1.9682    3.6238   51.4751 H       1  ZINC000470948647    0.1400
     36 H36        -4.1870    2.1496   53.4610 H       1  ZINC000470948647    0.4100
     37 H37        -6.9165    2.6687   50.2957 H       1  ZINC000470948647    0.1200
     38 H38        -5.1223    2.6774   50.3776 H       1  ZINC000470948647    0.1200
     39 H39        -8.1771    1.3204   52.8438 H       1  ZINC000470948647    0.1000
     40 H40        -6.9223    0.7327   53.9848 H       1  ZINC000470948647    0.1400
     41 H41       -10.7154    1.2932   57.5433 H       1  ZINC000470948647    0.1100
     42 H42       -10.6591    0.5459   55.1796 H       1  ZINC000470948647    0.0800
     43 H43        -9.5935   -0.8061   55.6325 H       1  ZINC000470948647    0.0800
     44 H44       -12.4149   -0.3302   56.6957 H       1  ZINC000470948647    0.0700
     45 H45       -11.9551   -1.5467   55.4803 H       1  ZINC000470948647    0.0800
     46 H46       -12.1132   -2.5598   57.7381 H       1  ZINC000470948647    0.0700
     47 H47       -10.4427   -2.6197   57.1266 H       1  ZINC000470948647    0.0700
     48 H48       -11.5646   -0.5203   59.0373 H       1  ZINC000470948647    0.0700
     49 H49       -10.4990   -1.8723   59.4902 H       1  ZINC000470948647    0.0700
     50 H50        -8.7432   -0.9962   57.9741 H       1  ZINC000470948647    0.0700
     51 H51        -9.2030    0.2203   59.1895 H       1  ZINC000470948647    0.0700
     52 H52        -7.6421    1.4456   58.7114 H       1  ZINC000470948647    0.1800
     53 H53        -5.9137    2.9060   57.3360 H       1  ZINC000470948647    0.1600
     54 H54        -3.1165    2.2313   56.2258 H       1  ZINC000470948647    0.0700
     55 H55        -2.9663    3.9030   56.8180 H       1  ZINC000470948647    0.0700
     56 H56        -4.2012    3.4972   55.6019 H       1  ZINC000470948647    0.0600
     57 H57        -0.6273    4.0951   56.1950 H       1  ZINC000470948647    0.1300
@<TRIPOS>BOND
     1     1     2    1
     2     1    31    1
     3     1    32    1
     4     1    33    1
     5     2    30   ar
     6     2     3   ar
     7     3     4   ar
     8     3    34    1
     9     4     5   ar
    10     4    35    1
    11     5     6    1
    12     5    28   ar
    13     6     7   am
    14     6    36    1
    15     7     8    2
    16     7     9    1
    17     9    10    1
    18     9    14    1
    19     9    11    1
    20    11    12    1
    21    11    37    1
    22    11    38    1
    23    12    13    1
    24    13    14    1
    25    13    39    1
    26    13    40    1
    27    14    15   am
    28    15    16    2
    29    15    17    1
    30    17    27    1
    31    17    18    2
    32    18    19    1
    33    19    20    1
    34    19    26    1
    35    20    25    1
    36    20    21    1
    37    20    41    1
    38    21    22    1
    39    21    42    1
    40    21    43    1
    41    22    23    1
    42    22    44    1
    43    22    45    1
    44    23    24    1
    45    23    46    1
    46    23    47    1
    47    24    25    1
    48    24    48    1
    49    24    49    1
    50    25    50    1
    51    25    51    1
    52    26    27    2
    53    26    52    1
    54    27    53    1
    55    28    29    1
    56    28    30   ar
    57    29    54    1
    58    29    55    1
    59    29    56    1
    60    30    57    1
@<TRIPOS>SUBSTRUCTURE
     1 ZINC000470948647        1 TEMP              0 ****  ****    0 ROOT


##########                                Name:    ZINC000459459628
##########                DOCK_Rotatable_Bonds:                   8
##########                         Heavy_Atoms:                  27
##########                    Molecular_Weight:             377.366
##########                DOCK_Rotatable_Bonds:                   8
##########                       Formal_Charge:         -0.00999984
##########                     HBond_Acceptors:                   8
##########                        HBond_Donors:                   1
##########                         Heavy_Atoms:                  27
##########                          Grid_Score:          -29.359735
##########                     Grid_vdw_energy:          -28.340540
##########                      Grid_es_energy:           -1.019195
##########           Internal_energy_repulsive:           14.779163

@<TRIPOS>MOLECULE
ZINC000459459628
 45 46 1 0 0
SMALL
USER_CHARGES


@<TRIPOS>ATOM
      1 C1         -7.6985    0.7647   52.8895 C.3     1  ZINC000459459628   -0.1600
      2 C2         -7.2722    2.1748   53.3029 C.3     1  ZINC000459459628    0.1600
      3 H3         -6.3854    2.1159   53.9341 H       1  ZINC000459459628    0.1100
      4 C4         -8.4078    2.8437   54.0801 C.3     1  ZINC000459459628   -0.0900
      5 C5         -8.6150    2.1224   55.3870 C.ar    1  ZINC000459459628   -0.0500
      6 C6         -9.8440    1.5615   55.6793 C.ar    1  ZINC000459459628   -0.1200
      7 C7        -10.0355    0.8996   56.8780 C.ar    1  ZINC000459459628   -0.0900
      8 C8         -8.9982    0.7980   57.7852 C.ar    1  ZINC000459459628   -0.1600
      9 C9         -7.7663    1.3590   57.4931 C.ar    1  ZINC000459459628    0.1000
     10 F10        -6.7513    1.2604   58.3794 F       1  ZINC000459459628   -0.1400
     11 C11        -7.5742    2.0171   56.2904 C.ar    1  ZINC000459459628   -0.1500
     12 N12        -6.9684    2.9637   52.1064 N.am    1  ZINC000459459628   -0.6200
     13 C13        -8.0568    3.5433   51.3154 C.3     1  ZINC000459459628    0.0700
     14 C14        -5.6877    3.1562   51.7335 C.2     1  ZINC000459459628    0.7100
     15 O15        -5.4354    3.8096   50.7396 O.2     1  ZINC000459459628   -0.5700
     16 N16        -4.6864    2.6242   52.4622 N.am    1  ZINC000459459628   -0.6800
     17 C17        -3.3542    2.8244   52.0743 C.ar    1  ZINC000459459628    0.1500
     18 C18        -2.8819    2.2586   50.9044 C.ar    1  ZINC000459459628   -0.0400
     19 C19        -1.5533    2.4610   50.5211 C.ar    1  ZINC000459459628   -0.0300
     20 C20        -1.0591    1.8779   49.3103 C.1     1  ZINC000459459628    0.2600
     21 N21        -0.6669    1.4152   48.3498 N.1     1  ZINC000459459628   -0.4100
     22 C22        -0.7085    3.2339   51.3216 C.ar    1  ZINC000459459628   -0.0500
     23 C23        -1.1854    3.7949   52.4873 C.ar    1  ZINC000459459628   -0.1700
     24 C24        -2.5058    3.5995   52.8659 C.ar    1  ZINC000459459628    0.1100
     25 O25        -2.9705    4.1546   54.0153 O.3     1  ZINC000459459628   -0.3200
     26 C26        -2.0924    4.1431   55.1426 C.3     1  ZINC000459459628    0.4100
     27 F27        -2.7869    4.5711   56.2791 F       1  ZINC000459459628   -0.1900
     28 F28        -1.6156    2.8441   55.3491 F       1  ZINC000459459628   -0.1900
     29 H29        -8.5852    0.8237   52.2583 H       1  ZINC000459459628    0.0600
     30 H30        -6.8894    0.2883   52.3358 H       1  ZINC000459459628    0.0600
     31 H31        -7.9245    0.1778   53.7797 H       1  ZINC000459459628    0.0700
     32 H32        -8.1501    3.8844   54.2763 H       1  ZINC000459459628    0.0800
     33 H33        -9.3247    2.8010   53.4922 H       1  ZINC000459459628    0.0900
     34 H34       -10.6554    1.6408   54.9710 H       1  ZINC000459459628    0.1300
     35 H35       -10.9963    0.4621   57.1054 H       1  ZINC000459459628    0.1300
     36 H36        -9.1482    0.2814   58.7217 H       1  ZINC000459459628    0.1300
     37 H37        -6.6138    2.4547   56.0615 H       1  ZINC000459459628    0.1300
     38 H38        -8.2883    4.5398   51.6913 H       1  ZINC000459459628    0.0600
     39 H39        -7.7510    3.6107   50.2713 H       1  ZINC000459459628    0.0700
     40 H40        -8.9407    2.9105   51.3950 H       1  ZINC000459459628    0.0800
     41 H41        -4.8876    2.1029   53.2551 H       1  ZINC000459459628    0.4100
     42 H42        -3.5381    1.6614   50.2885 H       1  ZINC000459459628    0.1600
     43 H43         0.3185    3.3917   51.0274 H       1  ZINC000459459628    0.1400
     44 H44        -0.5306    4.3915   53.1051 H       1  ZINC000459459628    0.1500
     45 H45        -1.2529    4.8128   54.9561 H       1  ZINC000459459628    0.1900
@<TRIPOS>BOND
     1     1     2    1
     2     1    29    1
     3     1    30    1
     4     1    31    1
     5     2     3    1
     6     2     4    1
     7     2    12    1
     8     4     5    1
     9     4    32    1
    10     4    33    1
    11     5    11   ar
    12     5     6   ar
    13     6     7   ar
    14     6    34    1
    15     7     8   ar
    16     7    35    1
    17     8     9   ar
    18     8    36    1
    19     9    10    1
    20     9    11   ar
    21    11    37    1
    22    12    13    1
    23    12    14   am
    24    13    38    1
    25    13    39    1
    26    13    40    1
    27    14    15    2
    28    14    16   am
    29    16    17    1
    30    16    41    1
    31    17    24   ar
    32    17    18   ar
    33    18    19   ar
    34    18    42    1
    35    19    20    1
    36    19    22   ar
    37    20    21    3
    38    22    23   ar
    39    22    43    1
    40    23    24   ar
    41    23    44    1
    42    24    25    1
    43    25    26    1
    44    26    27    1
    45    26    28    1
    46    26    45    1
@<TRIPOS>SUBSTRUCTURE
     1 ZINC000459459628        1 TEMP              0 ****  ****    0 ROOT


##########                                Name:    ZINC000918875053
##########                DOCK_Rotatable_Bonds:                   6
##########                         Heavy_Atoms:                  26
##########                    Molecular_Weight:             359.357
##########                DOCK_Rotatable_Bonds:                   6
##########                       Formal_Charge:           0.0200003
##########                     HBond_Acceptors:                   8
##########                        HBond_Donors:                   0
##########                         Heavy_Atoms:                  26
##########                          Grid_Score:          -29.355957
##########                     Grid_vdw_energy:          -28.671223
##########                      Grid_es_energy:           -0.684735
##########           Internal_energy_repulsive:            7.175212

@<TRIPOS>MOLECULE
ZINC000918875053
 44 47 1 0 0
SMALL
USER_CHARGES


@<TRIPOS>ATOM
      1 C1        -10.8324   -0.4629   55.1514 C.3     1  ZINC000918875053   -0.1700
      2 C2         -9.6492    0.4714   54.8902 C.3     1  ZINC000918875053    0.1900
      3 H3         -8.9930    0.0263   54.1423 H       1  ZINC000918875053    0.1400
      4 O4        -10.1393    1.7493   54.4052 O.3     1  ZINC000918875053   -0.3400
      5 C5         -9.2191    2.6658   54.0659 C.2     1  ZINC000918875053    0.4800
      6 O6         -9.1185    3.6862   54.7052 O.2     1  ZINC000918875053   -0.4900
      7 C7         -8.3117    2.4222   52.8877 C.3     1  ZINC000918875053   -0.0900
      8 H8         -8.5041    1.4448   52.4453 H       1  ZINC000918875053    0.1400
      9 C9         -8.4589    3.5448   51.8345 C.3     1  ZINC000918875053   -0.1400
     10 C10        -7.0552    3.7449   51.3070 C.2     1  ZINC000918875053    0.5300
     11 O11        -6.7751    4.3290   50.2816 O.2     1  ZINC000918875053   -0.5000
     12 N12        -6.1635    3.1814   52.1402 N.am    1  ZINC000918875053   -0.5800
     13 C13        -4.7783    3.1833   51.9339 C.ar    1  ZINC000918875053    0.1000
     14 C14        -3.9917    4.1744   52.5037 C.ar    1  ZINC000918875053   -0.0800
     15 C15        -2.6252    4.1737   52.2989 C.ar    1  ZINC000918875053   -0.1200
     16 C16        -2.0401    3.1874   51.5269 C.ar    1  ZINC000918875053   -0.0800
     17 C17        -2.8198    2.1973   50.9568 C.ar    1  ZINC000918875053   -0.1500
     18 C18        -4.1871    2.1886   51.1622 C.ar    1  ZINC000918875053    0.1100
     19 F19        -4.9487    1.2214   50.6059 F       1  ZINC000918875053   -0.1300
     20 C20        -6.8281    2.5628   53.2941 C.3     1  ZINC000918875053    0.1200
     21 C21        -8.8823    0.6808   56.1705 C.2     1  ZINC000918875053    0.1800
     22 N22        -9.3070    0.4290   57.3853 N.2     1  ZINC000918875053   -0.4600
     23 C23        -8.2928    0.7678   58.2010 C.2     1  ZINC000918875053    0.2100
     24 C24        -8.2846    0.6644   59.7044 C.3     1  ZINC000918875053   -0.0900
     25 C25        -9.2431   -0.3390   60.3488 C.3     1  ZINC000918875053   -0.1600
     26 C26        -7.7405   -0.6258   60.3208 C.3     1  ZINC000918875053   -0.1500
     27 N27        -7.3211    1.2004   57.4545 N.2     1  ZINC000918875053   -0.3700
     28 O28        -7.6373    1.1531   56.2844 O.3     1  ZINC000918875053    0.1000
     29 H29       -11.3871   -0.6143   54.2254 H       1  ZINC000918875053    0.0900
     30 H30       -10.4644   -1.4220   55.5156 H       1  ZINC000918875053    0.0900
     31 H31       -11.4886   -0.0177   55.8993 H       1  ZINC000918875053    0.0800
     32 H32        -9.1266    3.2303   51.0325 H       1  ZINC000918875053    0.1300
     33 H33        -8.8252    4.4595   52.3005 H       1  ZINC000918875053    0.1100
     34 H34        -4.4473    4.9462   53.1066 H       1  ZINC000918875053    0.1400
     35 H35        -2.0131    4.9451   52.7425 H       1  ZINC000918875053    0.1400
     36 H36        -0.9719    3.1901   51.3683 H       1  ZINC000918875053    0.1400
     37 H37        -2.3597    1.4282   50.3543 H       1  ZINC000918875053    0.1400
     38 H38        -6.7368    3.2043   54.1706 H       1  ZINC000918875053    0.1000
     39 H39        -6.3969    1.5825   53.4968 H       1  ZINC000918875053    0.1000
     40 H40        -8.0966    1.5957   60.2386 H       1  ZINC000918875053    0.1400
     41 H41        -9.6861   -0.0680   61.3071 H       1  ZINC000918875053    0.1100
     42 H42        -9.8796   -0.9244   59.6852 H       1  ZINC000918875053    0.1000
     43 H43        -7.3884   -1.3999   59.6389 H       1  ZINC000918875053    0.1000
     44 H44        -7.1949   -0.5434   61.2608 H       1  ZINC000918875053    0.1100
@<TRIPOS>BOND
     1     1     2    1
     2     1    29    1
     3     1    30    1
     4     1    31    1
     5     2     3    1
     6     2     4    1
     7     2    21    1
     8     4     5    1
     9     5     6    2
    10     5     7    1
    11     7     8    1
    12     7    20    1
    13     7     9    1
    14     9    10    1
    15     9    32    1
    16     9    33    1
    17    10    11    2
    18    10    12   am
    19    12    13    1
    20    12    20    1
    21    13    18   ar
    22    13    14   ar
    23    14    15   ar
    24    14    34    1
    25    15    16   ar
    26    15    35    1
    27    16    17   ar
    28    16    36    1
    29    17    18   ar
    30    17    37    1
    31    18    19    1
    32    20    38    1
    33    20    39    1
    34    21    28    1
    35    21    22    2
    36    22    23    1
    37    23    24    1
    38    23    27    2
    39    24    26    1
    40    24    25    1
    41    24    40    1
    42    25    26    1
    43    25    41    1
    44    25    42    1
    45    26    43    1
    46    26    44    1
    47    27    28    1
@<TRIPOS>SUBSTRUCTURE
     1 ZINC000918875053        1 TEMP              0 ****  ****    0 ROOT


##########                                Name:    ZINC001401207732
##########                DOCK_Rotatable_Bonds:                   8
##########                         Heavy_Atoms:                  23
##########                    Molecular_Weight:             337.446
##########                DOCK_Rotatable_Bonds:                   8
##########                       Formal_Charge:          -0.0199995
##########                     HBond_Acceptors:                   8
##########                        HBond_Donors:                   1
##########                         Heavy_Atoms:                  23
##########                          Grid_Score:          -29.322041
##########                     Grid_vdw_energy:          -30.444256
##########                      Grid_es_energy:            1.122215
##########           Internal_energy_repulsive:          101.296814

@<TRIPOS>MOLECULE
ZINC001401207732
 46 47 1 0 0
SMALL
USER_CHARGES


@<TRIPOS>ATOM
      1 C1         -8.2832    5.6426   49.0252 C.3     1  ZINC001401207732   -0.0900
      2 C2         -8.9689    5.2389   50.3051 C.2     1  ZINC001401207732    0.1500
      3 C3         -8.4455    4.3314   51.1670 C.2     1  ZINC001401207732   -0.3000
      4 C4         -7.1743    3.6177   51.0048 C.2     1  ZINC001401207732    0.6100
      5 O5         -6.4816    3.8235   50.0258 O.2     1  ZINC001401207732   -0.5200
      6 N6         -6.7736    2.7339   51.9401 N.am    1  ZINC001401207732   -0.5900
      7 C7         -7.6077    2.4861   53.1187 C.3     1  ZINC001401207732    0.0700
      8 C8         -5.5041    2.0210   51.7781 C.3     1  ZINC001401207732    0.1400
      9 H9         -5.3039    1.4281   52.6706 H       1  ZINC001401207732    0.1100
     10 C10        -5.5892    1.0978   50.5610 C.3     1  ZINC001401207732   -0.1600
     11 C11        -4.3739    3.0320   51.5735 C.3     1  ZINC001401207732    0.0500
     12 N12        -3.1899    2.6023   52.3292 N.3     1  ZINC001401207732   -0.6800
     13 C13        -2.0262    3.4382   52.0045 C.3     1  ZINC001401207732    0.1500
     14 C14        -1.2698    2.8218   50.8561 C.2     1  ZINC001401207732    0.1800
     15 N15         0.0280    2.8511   50.6705 N.2     1  ZINC001401207732   -0.4800
     16 C16         0.2453    2.1782   49.5264 C.2     1  ZINC001401207732    0.1800
     17 C17         1.5828    1.9303   48.8778 C.3     1  ZINC001401207732   -0.0100
     18 C18         2.4543    1.0882   49.8117 C.3     1  ZINC001401207732   -0.1500
     19 C19         1.3791    1.1829   47.5585 C.3     1  ZINC001401207732   -0.1500
     20 N20        -0.9099    1.7814   49.0828 N.2     1  ZINC001401207732   -0.3800
     21 O21        -1.7928    2.1360   49.8352 O.3     1  ZINC001401207732    0.0900
     22 S22        -9.5700    4.1582   52.5125 S.3     1  ZINC001401207732    0.1800
     23 C23       -10.6126    5.3116   51.8019 C.2     1  ZINC001401207732    0.0100
     24 N24       -10.1211    5.7341   50.6815 N.2     1  ZINC001401207732   -0.4800
     25 H25        -8.6049    4.9851   48.2176 H       1  ZINC001401207732    0.0800
     26 H26        -8.5455    6.6722   48.7817 H       1  ZINC001401207732    0.0800
     27 H27        -7.2034    5.5627   49.1507 H       1  ZINC001401207732    0.1000
     28 H28        -7.4017    3.2435   53.8753 H       1  ZINC001401207732    0.0600
     29 H29        -8.6593    2.5317   52.8359 H       1  ZINC001401207732    0.0800
     30 H30        -7.3824    1.4990   53.5222 H       1  ZINC001401207732    0.0900
     31 H31        -4.6446    0.5674   50.4406 H       1  ZINC001401207732    0.0700
     32 H32        -6.3942    0.3776   50.7069 H       1  ZINC001401207732    0.0700
     33 H33        -5.7893    1.6907   49.6685 H       1  ZINC001401207732    0.0600
     34 H34        -4.6947    4.0119   51.9270 H       1  ZINC001401207732    0.0800
     35 H35        -4.1268    3.0910   50.5135 H       1  ZINC001401207732    0.0500
     36 H36        -2.9911    1.6266   52.1657 H       1  ZINC001401207732    0.3600
     37 H37        -1.3735    3.5060   52.8748 H       1  ZINC001401207732    0.1100
     38 H38        -2.3628    4.4363   51.7240 H       1  ZINC001401207732    0.0800
     39 H39         2.0746    2.8835   48.6832 H       1  ZINC001401207732    0.1000
     40 H40         3.4217    0.9089   49.3425 H       1  ZINC001401207732    0.0700
     41 H41         2.5995    1.6207   50.7516 H       1  ZINC001401207732    0.0600
     42 H42         1.9627    0.1350   50.0062 H       1  ZINC001401207732    0.0600
     43 H43         0.7582    1.7828   46.8931 H       1  ZINC001401207732    0.0600
     44 H44         2.3464    1.0036   47.0893 H       1  ZINC001401207732    0.0700
     45 H45         0.8874    0.2297   47.7530 H       1  ZINC001401207732    0.0600
     46 H46       -11.5511    5.6378   52.2252 H       1  ZINC001401207732    0.2000
@<TRIPOS>BOND
     1     1     2    1
     2     1    25    1
     3     1    26    1
     4     1    27    1
     5     2    24    1
     6     2     3    2
     7     3     4    1
     8     3    22    1
     9     4     5    2
    10     4     6   am
    11     6     7    1
    12     6     8    1
    13     7    28    1
    14     7    29    1
    15     7    30    1
    16     8     9    1
    17     8    10    1
    18     8    11    1
    19    10    31    1
    20    10    32    1
    21    10    33    1
    22    11    12    1
    23    11    34    1
    24    11    35    1
    25    12    13    1
    26    12    36    1
    27    13    14    1
    28    13    37    1
    29    13    38    1
    30    14    21    1
    31    14    15    2
    32    15    16    1
    33    16    17    1
    34    16    20    2
    35    17    18    1
    36    17    19    1
    37    17    39    1
    38    18    40    1
    39    18    41    1
    40    18    42    1
    41    19    43    1
    42    19    44    1
    43    19    45    1
    44    20    21    1
    45    22    23    1
    46    23    24    2
    47    23    46    1
@<TRIPOS>SUBSTRUCTURE
     1 ZINC001401207732        1 TEMP              0 ****  ****    0 ROOT


##########                                Name:    ZINC000564088286
##########                DOCK_Rotatable_Bonds:                   6
##########                         Heavy_Atoms:                  25
##########                    Molecular_Weight:             398.934
##########                DOCK_Rotatable_Bonds:                   6
##########                       Formal_Charge:               -0.05
##########                     HBond_Acceptors:                   8
##########                        HBond_Donors:                   1
##########                         Heavy_Atoms:                  25
##########                          Grid_Score:          -29.313805
##########                     Grid_vdw_energy:          -29.351246
##########                      Grid_es_energy:            0.037441
##########           Internal_energy_repulsive:           13.567306

@<TRIPOS>MOLECULE
ZINC000564088286
 44 46 1 0 0
SMALL
USER_CHARGES


@<TRIPOS>ATOM
      1 C1        -12.0099   -0.7996   60.6999 C.3     1  ZINC000564088286   -0.1600
      2 C2        -11.2945   -0.7277   59.3493 C.3     1  ZINC000564088286    0.1100
      3 N3        -12.0359   -1.5154   58.3615 N.am    1  ZINC000564088286   -1.1200
      4 S4        -11.2300   -2.2527   57.1167 S.o2    1  ZINC000564088286    2.7000
      5 O5        -10.2022   -3.0334   57.7109 O.2     1  ZINC000564088286   -0.9600
      6 O6        -12.2252   -2.7988   56.2620 O.2     1  ZINC000564088286   -0.9600
      7 C7        -10.4231   -0.9862   56.1952 C.ar    1  ZINC000564088286   -0.6800
      8 C8         -9.4712   -0.1889   56.8029 C.ar    1  ZINC000564088286   -0.0200
      9 C9         -8.8380    0.8047   56.0799 C.ar    1  ZINC000564088286   -0.1300
     10 C10        -9.1564    1.0008   54.7490 C.ar    1  ZINC000564088286   -0.0100
     11 C11        -8.4666    2.0844   53.9611 C.3     1  ZINC000564088286   -0.1100
     12 C12        -7.4991    1.4600   52.9888 C.2     1  ZINC000564088286    0.5200
     13 O13        -7.4635    0.2548   52.8584 O.2     1  ZINC000564088286   -0.5200
     14 N14        -6.6736    2.2409   52.2642 N.am    1  ZINC000564088286   -0.6200
     15 C15        -6.7005    3.7044   52.4068 C.3     1  ZINC000564088286    0.1200
     16 C16        -5.3576    4.1634   52.9831 C.3     1  ZINC000564088286   -0.0700
     17 C17        -4.2369    3.4592   52.2480 C.2     1  ZINC000564088286   -0.1600
     18 C18        -4.3777    2.3428   51.5091 C.2     1  ZINC000564088286   -0.1200
     19 C19        -3.1894    1.8893   50.9441 C.2     1  ZINC000564088286   -0.1100
     20 C20        -2.1103    2.6209   51.2094 C.2     1  ZINC000564088286   -0.1500
     21 Cl21       -0.5075    2.2864   50.6326 Cl      1  ZINC000564088286   -0.0100
     22 S22        -2.5561    3.9780   52.2327 S.3     1  ZINC000564088286    0.1600
     23 C23        -5.7183    1.6520   51.3151 C.3     1  ZINC000564088286    0.1700
     24 C24       -10.1073    0.2027   54.1410 C.ar    1  ZINC000564088286   -0.1300
     25 C25       -10.7377   -0.7934   54.8630 C.ar    1  ZINC000564088286   -0.0200
     26 H26       -13.0185   -0.3988   60.5986 H       1  ZINC000564088286    0.0600
     27 H27       -12.0626   -1.8375   61.0283 H       1  ZINC000564088286    0.0600
     28 H28       -11.4582   -0.2134   61.4349 H       1  ZINC000564088286    0.0700
     29 H29       -11.2418    0.3104   59.0209 H       1  ZINC000564088286    0.0800
     30 H30       -10.2859   -1.1283   59.4507 H       1  ZINC000564088286    0.0700
     31 H31       -12.9988   -1.6052   58.4365 H       1  ZINC000564088286    0.4200
     32 H32        -9.2224   -0.3422   57.8426 H       1  ZINC000564088286    0.1400
     33 H33        -8.0948    1.4279   56.5549 H       1  ZINC000564088286    0.1300
     34 H34        -9.2093    2.6640   53.4129 H       1  ZINC000564088286    0.1100
     35 H35        -7.9245    2.7401   54.6425 H       1  ZINC000564088286    0.1100
     36 H36        -6.8565    4.1644   51.4310 H       1  ZINC000564088286    0.0800
     37 H37        -7.5062    3.9915   53.0826 H       1  ZINC000564088286    0.1100
     38 H38        -5.2558    5.2413   52.8564 H       1  ZINC000564088286    0.0900
     39 H39        -5.3113    3.9139   54.0432 H       1  ZINC000564088286    0.0900
     40 H40        -3.1459    1.0014   50.3307 H       1  ZINC000564088286    0.1500
     41 H41        -5.6145    0.5841   51.5069 H       1  ZINC000564088286    0.1000
     42 H42        -6.0723    1.8122   50.2967 H       1  ZINC000564088286    0.0900
     43 H43       -10.3558    0.3558   53.1013 H       1  ZINC000564088286    0.1300
     44 H44       -11.4806   -1.4169   54.3880 H       1  ZINC000564088286    0.1400
@<TRIPOS>BOND
     1     1     2    1
     2     1    26    1
     3     1    27    1
     4     1    28    1
     5     2     3    1
     6     2    29    1
     7     2    30    1
     8     3     4   am
     9     3    31    1
    10     4     5    2
    11     4     6    2
    12     4     7    1
    13     7    25   ar
    14     7     8   ar
    15     8     9   ar
    16     8    32    1
    17     9    10   ar
    18     9    33    1
    19    10    11    1
    20    10    24   ar
    21    11    12    1
    22    11    34    1
    23    11    35    1
    24    12    13    2
    25    12    14   am
    26    14    23    1
    27    14    15    1
    28    15    16    1
    29    15    36    1
    30    15    37    1
    31    16    17    1
    32    16    38    1
    33    16    39    1
    34    17    22    1
    35    17    18    2
    36    18    19    1
    37    18    23    1
    38    19    20    2
    39    19    40    1
    40    20    21    1
    41    20    22    1
    42    23    41    1
    43    23    42    1
    44    24    25   ar
    45    24    43    1
    46    25    44    1
@<TRIPOS>SUBSTRUCTURE
     1 ZINC000564088286        1 TEMP              0 ****  ****    0 ROOT


##########                                Name:    ZINC000074782190
##########                DOCK_Rotatable_Bonds:                   9
##########                         Heavy_Atoms:                  25
##########                    Molecular_Weight:             341.453
##########                DOCK_Rotatable_Bonds:                   9
##########                       Formal_Charge:          -0.0200006
##########                     HBond_Acceptors:                   5
##########                        HBond_Donors:                   1
##########                         Heavy_Atoms:                  25
##########                          Grid_Score:          -29.310356
##########                     Grid_vdw_energy:          -29.107304
##########                      Grid_es_energy:           -0.203052
##########           Internal_energy_repulsive:           28.559467

@<TRIPOS>MOLECULE
ZINC000074782190
 52 53 1 0 0
SMALL
USER_CHARGES


@<TRIPOS>ATOM
      1 C1         -2.3281    3.6294   53.9217 C.3     1  ZINC000074782190   -0.1100
      2 C2         -2.4694    3.1200   52.5105 C.ar    1  ZINC000074782190   -0.1200
      3 C3         -1.3639    3.0555   51.6850 C.ar    1  ZINC000074782190   -0.0800
      4 C4         -1.4929    2.5886   50.3897 C.ar    1  ZINC000074782190   -0.1500
      5 C5         -2.7281    2.1850   49.9179 C.ar    1  ZINC000074782190   -0.0900
      6 C6         -3.8369    2.2471   50.7398 C.ar    1  ZINC000074782190   -0.2100
      7 C7         -3.7091    2.7101   52.0411 C.ar    1  ZINC000074782190    0.1300
      8 O8         -4.7983    2.7723   52.8516 O.3     1  ZINC000074782190   -0.3000
      9 C9         -6.0099    3.2619   52.2735 C.3     1  ZINC000074782190    0.0700
     10 H10        -5.8912    3.3403   51.1928 H       1  ZINC000074782190    0.0800
     11 C11        -6.3305    4.6411   52.8527 C.3     1  ZINC000074782190   -0.1800
     12 C12        -7.1534    2.2966   52.5920 C.3     1  ZINC000074782190    0.1400
     13 N13        -7.2833    2.1555   54.0444 N.am    1  ZINC000074782190   -0.7500
     14 C14        -8.4892    1.9058   54.5921 C.2     1  ZINC000074782190    0.7100
     15 O15        -9.4693    1.7977   53.8808 O.2     1  ZINC000074782190   -0.5900
     16 N16        -8.6086    1.7761   55.9282 N.am    1  ZINC000074782190   -0.6200
     17 C17        -9.9194    1.5047   56.5236 C.3     1  ZINC000074782190    0.1800
     18 C18       -10.1127    0.0160   56.6555 C.ar    1  ZINC000074782190   -0.1600
     19 C19       -10.2218   -0.5695   57.9073 C.ar    1  ZINC000074782190   -0.0500
     20 C20       -10.3994   -1.9428   57.9805 C.ar    1  ZINC000074782190   -0.1800
     21 C21       -10.4614   -2.6770   56.8114 C.ar    1  ZINC000074782190    0.1000
     22 N22       -10.3537   -2.0861   55.6373 N.ar    1  ZINC000074782190   -0.4900
     23 C23       -10.1894   -0.7823   55.5296 C.ar    1  ZINC000074782190    0.1100
     24 C24        -7.4276    1.9065   56.7853 C.3     1  ZINC000074782190    0.1300
     25 C25        -7.2689    3.3659   57.2164 C.3     1  ZINC000074782190   -0.1800
     26 C26        -7.5964    1.0244   58.0239 C.3     1  ZINC000074782190   -0.1800
     27 H27        -2.1014    2.7967   54.5876 H       1  ZINC000074782190    0.0700
     28 H28        -1.5201    4.3598   53.9652 H       1  ZINC000074782190    0.0600
     29 H29        -3.2605    4.1002   54.2332 H       1  ZINC000074782190    0.0700
     30 H30        -0.3979    3.3702   52.0513 H       1  ZINC000074782190    0.1300
     31 H31        -0.6275    2.5396   49.7456 H       1  ZINC000074782190    0.1200
     32 H32        -2.8264    1.8211   48.9058 H       1  ZINC000074782190    0.1200
     33 H33        -4.8017    1.9321   50.3706 H       1  ZINC000074782190    0.1300
     34 H34        -6.4493    4.5627   53.9334 H       1  ZINC000074782190    0.0700
     35 H35        -5.5159    5.3289   52.6257 H       1  ZINC000074782190    0.0700
     36 H36        -7.2548    5.0146   52.4118 H       1  ZINC000074782190    0.0800
     37 H37        -8.0840    2.6872   52.1803 H       1  ZINC000074782190    0.0800
     38 H38        -6.9410    1.3231   52.1499 H       1  ZINC000074782190    0.0900
     39 H39        -6.5013    2.2418   54.6118 H       1  ZINC000074782190    0.4100
     40 H40        -9.9734    1.9669   57.5092 H       1  ZINC000074782190    0.0900
     41 H41       -10.7008    1.9173   55.8855 H       1  ZINC000074782190    0.1000
     42 H42       -10.1694    0.0297   58.8043 H       1  ZINC000074782190    0.1400
     43 H43       -10.4878   -2.4324   58.9390 H       1  ZINC000074782190    0.1300
     44 H44       -10.5991   -3.7471   56.8598 H       1  ZINC000074782190    0.1600
     45 H45       -10.1052   -0.3339   54.5507 H       1  ZINC000074782190    0.1500
     46 H46        -6.5418    1.5922   56.2335 H       1  ZINC000074782190    0.1000
     47 H47        -8.1123    3.6530   57.8443 H       1  ZINC000074782190    0.0600
     48 H48        -6.3419    3.4800   57.7784 H       1  ZINC000074782190    0.0700
     49 H49        -7.2393    4.0043   56.3333 H       1  ZINC000074782190    0.0600
     50 H50        -7.5939   -0.0243   57.7263 H       1  ZINC000074782190    0.0700
     51 H51        -6.7742    1.2078   58.7155 H       1  ZINC000074782190    0.0700
     52 H52        -8.5417    1.2611   58.5125 H       1  ZINC000074782190    0.0700
@<TRIPOS>BOND
     1     1     2    1
     2     1    27    1
     3     1    28    1
     4     1    29    1
     5     2     7   ar
     6     2     3   ar
     7     3     4   ar
     8     3    30    1
     9     4     5   ar
    10     4    31    1
    11     5     6   ar
    12     5    32    1
    13     6     7   ar
    14     6    33    1
    15     7     8    1
    16     8     9    1
    17     9    10    1
    18     9    11    1
    19     9    12    1
    20    11    34    1
    21    11    35    1
    22    11    36    1
    23    12    13    1
    24    12    37    1
    25    12    38    1
    26    13    14   am
    27    13    39    1
    28    14    15    2
    29    14    16   am
    30    16    17    1
    31    16    24    1
    32    17    18    1
    33    17    40    1
    34    17    41    1
    35    18    23   ar
    36    18    19   ar
    37    19    20   ar
    38    19    42    1
    39    20    21   ar
    40    20    43    1
    41    21    22   ar
    42    21    44    1
    43    22    23   ar
    44    23    45    1
    45    24    25    1
    46    24    26    1
    47    24    46    1
    48    25    47    1
    49    25    48    1
    50    25    49    1
    51    26    50    1
    52    26    51    1
    53    26    52    1
@<TRIPOS>SUBSTRUCTURE
     1 ZINC000074782190        1 TEMP              0 ****  ****    0 ROOT


##########                                Name:    ZINC000119180466
##########                DOCK_Rotatable_Bonds:                  10
##########                         Heavy_Atoms:                  23
##########                    Molecular_Weight:             350.405
##########                DOCK_Rotatable_Bonds:                  10
##########                       Formal_Charge:           0.0299997
##########                     HBond_Acceptors:                   8
##########                        HBond_Donors:                   3
##########                         Heavy_Atoms:                  23
##########                          Grid_Score:          -29.307646
##########                     Grid_vdw_energy:          -28.410782
##########                      Grid_es_energy:           -0.896864
##########           Internal_energy_repulsive:           10.775815

@<TRIPOS>MOLECULE
ZINC000119180466
 44 44 1 0 0
SMALL
USER_CHARGES


@<TRIPOS>ATOM
      1 C1         -9.0586    1.7264   61.6265 C.3     1  ZINC000119180466   -0.1300
      2 S2         -9.6601    1.3125   59.9659 S.3     1  ZINC000119180466   -0.2200
      3 C3         -9.4220   -0.4839   59.8817 C.3     1  ZINC000119180466   -0.0700
      4 H4         -9.8608   -0.9503   60.7638 H       1  ZINC000119180466    0.1100
      5 C5         -7.9256   -0.7982   59.8297 C.3     1  ZINC000119180466    0.0800
      6 O6         -7.2780    0.1140   58.9404 O.3     1  ZINC000119180466   -0.5600
      7 C7        -10.1019   -1.0300   58.6245 C.3     1  ZINC000119180466    0.1900
      8 H8         -9.6599   -1.9908   58.3608 H       1  ZINC000119180466    0.1000
      9 C9        -11.5972   -1.2128   58.8920 C.3     1  ZINC000119180466   -0.1700
     10 N10        -9.9152   -0.0867   57.5195 N.am    1  ZINC000119180466   -0.7200
     11 C11        -9.9208   -0.5300   56.2467 C.2     1  ZINC000119180466    0.7100
     12 O12       -10.0825   -1.7128   56.0157 O.2     1  ZINC000119180466   -0.6000
     13 N13        -9.7474    0.3377   55.2300 N.am    1  ZINC000119180466   -0.7400
     14 C14        -9.7554   -0.1440   53.8465 C.3     1  ZINC000119180466    0.2000
     15 H15        -9.6962   -1.2323   53.8403 H       1  ZINC000119180466    0.1000
     16 C16       -11.0482    0.3003   53.1593 C.3     1  ZINC000119180466   -0.1600
     17 C17        -8.5722    0.4277   53.1088 C.ar    1  ZINC000119180466   -0.0600
     18 C18        -7.8264   -0.3778   52.2686 C.ar    1  ZINC000119180466   -0.1100
     19 C19        -6.7410    0.1467   51.5921 C.ar    1  ZINC000119180466   -0.0600
     20 C20        -6.4017    1.4768   51.7553 C.ar    1  ZINC000119180466   -0.1800
     21 C21        -5.2182    2.0484   51.0182 C.3     1  ZINC000119180466    0.5100
     22 F22        -5.5208    3.3432   50.5830 F       1  ZINC000119180466   -0.1800
     23 F23        -4.1120    2.0906   51.8735 F       1  ZINC000119180466   -0.1800
     24 F24        -4.9231    1.2423   49.9135 F       1  ZINC000119180466   -0.1800
     25 C25        -7.1482    2.2826   52.5944 C.ar    1  ZINC000119180466   -0.0600
     26 C26        -8.2360    1.7591   53.2681 C.ar    1  ZINC000119180466   -0.1100
     27 H27        -8.0112    1.4379   61.7159 H       1  ZINC000119180466    0.0800
     28 H28        -9.1551    2.7996   61.7909 H       1  ZINC000119180466    0.1000
     29 H29        -9.6478    1.1904   62.3705 H       1  ZINC000119180466    0.0800
     30 H30        -7.4985   -0.6980   60.8274 H       1  ZINC000119180466    0.0500
     31 H31        -7.7807   -1.8179   59.4732 H       1  ZINC000119180466    0.0600
     32 H32        -7.3432    1.0401   59.2110 H       1  ZINC000119180466    0.3800
     33 H33       -12.0393   -0.2520   59.1558 H       1  ZINC000119180466    0.0700
     34 H34       -12.0816   -1.6019   57.9963 H       1  ZINC000119180466    0.0700
     35 H35       -11.7362   -1.9147   59.7142 H       1  ZINC000119180466    0.0700
     36 H36        -9.7875    0.8571   57.7037 H       1  ZINC000119180466    0.4100
     37 H37        -9.6173    1.2810   55.4144 H       1  ZINC000119180466    0.4000
     38 H38       -11.0541   -0.0580   52.1300 H       1  ZINC000119180466    0.0700
     39 H39       -11.9040   -0.1132   53.6929 H       1  ZINC000119180466    0.0700
     40 H40       -11.1074    1.3887   53.1655 H       1  ZINC000119180466    0.0600
     41 H41        -8.0916   -1.4169   52.1412 H       1  ZINC000119180466    0.1300
     42 H42        -6.1580   -0.4828   50.9362 H       1  ZINC000119180466    0.1400
     43 H43        -6.8833    3.3218   52.7218 H       1  ZINC000119180466    0.1400
     44 H44        -8.8193    2.3886   53.9238 H       1  ZINC000119180466    0.1400
@<TRIPOS>BOND
     1     1     2    1
     2     1    27    1
     3     1    28    1
     4     1    29    1
     5     2     3    1
     6     3     4    1
     7     3     5    1
     8     3     7    1
     9     5     6    1
    10     5    30    1
    11     5    31    1
    12     6    32    1
    13     7     8    1
    14     7     9    1
    15     7    10    1
    16     9    33    1
    17     9    34    1
    18     9    35    1
    19    10    11   am
    20    10    36    1
    21    11    12    2
    22    11    13   am
    23    13    14    1
    24    13    37    1
    25    14    15    1
    26    14    16    1
    27    14    17    1
    28    16    38    1
    29    16    39    1
    30    16    40    1
    31    17    26   ar
    32    17    18   ar
    33    18    19   ar
    34    18    41    1
    35    19    20   ar
    36    19    42    1
    37    20    21    1
    38    20    25   ar
    39    21    22    1
    40    21    23    1
    41    21    24    1
    42    25    26   ar
    43    25    43    1
    44    26    44    1
@<TRIPOS>SUBSTRUCTURE
     1 ZINC000119180466        1 TEMP              0 ****  ****    0 ROOT


##########                                Name:    ZINC001058772245
##########                DOCK_Rotatable_Bonds:                  11
##########                         Heavy_Atoms:                  22
##########                    Molecular_Weight:             335.375
##########                DOCK_Rotatable_Bonds:                  11
##########                       Formal_Charge:          0.00999964
##########                     HBond_Acceptors:                   9
##########                        HBond_Donors:                   2
##########                         Heavy_Atoms:                  22
##########                          Grid_Score:          -29.301540
##########                     Grid_vdw_energy:          -29.459129
##########                      Grid_es_energy:            0.157590
##########           Internal_energy_repulsive:           55.902370

@<TRIPOS>MOLECULE
ZINC001058772245
 41 41 1 0 0
SMALL
USER_CHARGES


@<TRIPOS>ATOM
      1 C1         -9.0556    0.5019   54.1999 C.3     1  ZINC001058772245   -0.1700
      2 C2         -8.5770    1.7248   53.4149 C.3     1  ZINC001058772245   -0.1400
      3 C3         -8.1337    2.8160   54.3914 C.3     1  ZINC001058772245   -0.1500
      4 C4         -7.4164    1.3351   52.5363 C.2     1  ZINC001058772245    0.5300
      5 O5         -7.0552    0.1784   52.4865 O.2     1  ZINC001058772245   -0.5200
      6 N6         -6.7797    2.2720   51.8059 N.am    1  ZINC001058772245   -0.5900
      7 C7         -7.2161    3.6692   51.8660 C.3     1  ZINC001058772245    0.0800
      8 C8         -6.9734    4.3380   50.5115 C.3     1  ZINC001058772245    0.0400
      9 O9         -7.8396    5.4664   50.3754 O.3     1  ZINC001058772245   -0.5700
     10 C10        -5.6514    1.8931   50.9518 C.3     1  ZINC001058772245    0.1100
     11 C11        -4.3694    2.5352   51.4858 C.3     1  ZINC001058772245    0.1000
     12 N12        -3.2274    2.0824   50.6878 N.am    1  ZINC001058772245   -0.7100
     13 C13        -2.0028    2.5998   50.9094 C.2     1  ZINC001058772245    0.6000
     14 O14        -1.8455    3.4416   51.7732 O.2     1  ZINC001058772245   -0.5300
     15 C15        -0.8551    2.1459   50.1060 C.2     1  ZINC001058772245    0.0000
     16 C16         0.4285    2.2777   50.5101 C.2     1  ZINC001058772245   -0.2200
     17 S17         1.4552    1.6321   49.3055 S.3     1  ZINC001058772245    0.2300
     18 C18         0.1126    1.2237   48.3323 C.2     1  ZINC001058772245    0.0000
     19 N19        -0.9852    1.5606   48.9126 N.2     1  ZINC001058772245   -0.4400
     20 C20        -9.7202    2.2522   52.5456 C.3     1  ZINC001058772245    0.2900
     21 F21       -10.7373    1.2938   52.4809 F       1  ZINC001058772245   -0.1900
     22 F22       -10.2254    3.4312   53.1043 F       1  ZINC001058772245   -0.2000
     23 H23       -10.0489    0.6958   54.6047 H       1  ZINC001058772245    0.0800
     24 H24        -9.0958   -0.3624   53.5370 H       1  ZINC001058772245    0.0700
     25 H25        -8.3631    0.3009   55.0173 H       1  ZINC001058772245    0.0900
     26 H26        -7.1680    2.5490   54.8207 H       1  ZINC001058772245    0.0800
     27 H27        -8.0458    3.7643   53.8611 H       1  ZINC001058772245    0.0700
     28 H28        -8.8713    2.9123   55.1881 H       1  ZINC001058772245    0.0900
     29 H29        -8.2789    3.7078   52.1052 H       1  ZINC001058772245    0.0900
     30 H30        -6.6511    4.1934   52.6367 H       1  ZINC001058772245    0.1200
     31 H31        -5.9360    4.6667   50.4494 H       1  ZINC001058772245    0.0600
     32 H32        -7.1772    3.6251   49.7126 H       1  ZINC001058772245    0.0700
     33 H33        -8.7806    5.2452   50.4013 H       1  ZINC001058772245    0.3800
     34 H34        -5.5425    0.8086   50.9535 H       1  ZINC001058772245    0.1000
     35 H35        -5.8341    2.2384   49.9342 H       1  ZINC001058772245    0.0900
     36 H36        -4.4515    3.6201   51.4196 H       1  ZINC001058772245    0.0700
     37 H37        -4.2236    2.2446   52.5262 H       1  ZINC001058772245    0.0700
     38 H38        -3.3525    1.4102   49.9997 H       1  ZINC001058772245    0.4100
     39 H39         0.7520    2.7186   51.4414 H       1  ZINC001058772245    0.1900
     40 H40         0.1760    0.7459   47.3659 H       1  ZINC001058772245    0.2100
     41 H41        -9.3488    2.4562   51.5414 H       1  ZINC001058772245    0.1200
@<TRIPOS>BOND
     1     1     2    1
     2     1    23    1
     3     1    24    1
     4     1    25    1
     5     2     3    1
     6     2     4    1
     7     2    20    1
     8     3    26    1
     9     3    27    1
    10     3    28    1
    11     4     5    2
    12     4     6   am
    13     6     7    1
    14     6    10    1
    15     7     8    1
    16     7    29    1
    17     7    30    1
    18     8     9    1
    19     8    31    1
    20     8    32    1
    21     9    33    1
    22    10    11    1
    23    10    34    1
    24    10    35    1
    25    11    12    1
    26    11    36    1
    27    11    37    1
    28    12    13   am
    29    12    38    1
    30    13    14    2
    31    13    15    1
    32    15    19    1
    33    15    16    2
    34    16    17    1
    35    16    39    1
    36    17    18    1
    37    18    19    2
    38    18    40    1
    39    20    21    1
    40    20    22    1
    41    20    41    1
@<TRIPOS>SUBSTRUCTURE
     1 ZINC001058772245        1 TEMP              0 ****  ****    0 ROOT


##########                                Name:    ZINC000443394081
##########                DOCK_Rotatable_Bonds:                   8
##########                         Heavy_Atoms:                  27
##########                    Molecular_Weight:             389.878
##########                DOCK_Rotatable_Bonds:                   8
##########                       Formal_Charge:          -0.0300003
##########                     HBond_Acceptors:                   6
##########                        HBond_Donors:                   1
##########                         Heavy_Atoms:                  27
##########                          Grid_Score:          -29.289461
##########                     Grid_vdw_energy:          -29.519552
##########                      Grid_es_energy:            0.230092
##########           Internal_energy_repulsive:           35.925594

@<TRIPOS>MOLECULE
ZINC000443394081
 51 53 1 0 0
SMALL
USER_CHARGES


@<TRIPOS>ATOM
      1 C1         -3.4007    4.3554   54.8792 C.3     1  ZINC000443394081    0.0200
      2 O2         -2.8815    3.6248   53.7662 O.3     1  ZINC000443394081   -0.3000
      3 C3         -3.7810    3.1637   52.8566 C.ar    1  ZINC000443394081    0.1000
      4 C4         -5.1338    3.3362   53.0744 C.ar    1  ZINC000443394081   -0.1200
      5 C5         -6.0557    2.8615   52.1372 C.ar    1  ZINC000443394081   -0.1300
      6 C6         -7.5025    3.0438   52.3649 C.2     1  ZINC000443394081    0.5700
      7 O7         -8.0002    4.1482   52.2598 O.2     1  ZINC000443394081   -0.4900
      8 N8         -8.2722    1.9861   52.6893 N.am    1  ZINC000443394081   -0.6100
      9 C9         -7.8018    0.5981   52.8492 C.3     1  ZINC000443394081    0.0900
     10 C10        -8.8413   -0.0676   53.7853 C.3     1  ZINC000443394081   -0.1300
     11 C11       -10.1609    0.5912   53.3038 C.3     1  ZINC000443394081   -0.1000
     12 H12       -10.5515    0.0759   52.4264 H       1  ZINC000443394081    0.0900
     13 C13       -11.1995    0.6064   54.4272 C.3     1  ZINC000443394081   -0.1500
     14 C14        -9.7188    2.0264   52.9488 C.3     1  ZINC000443394081    0.1400
     15 H15       -10.2415    2.3647   52.0540 H       1  ZINC000443394081    0.0800
     16 C16       -10.0224    2.9681   54.1158 C.3     1  ZINC000443394081    0.0600
     17 O17        -9.0844    2.7389   55.1692 O.3     1  ZINC000443394081   -0.5400
     18 C18        -5.6047    2.2147   50.9844 C.ar    1  ZINC000443394081   -0.1000
     19 C19        -4.2532    2.0451   50.7732 C.ar    1  ZINC000443394081   -0.1800
     20 C20        -3.3375    2.5215   51.7010 C.ar    1  ZINC000443394081    0.1300
     21 O21        -2.0070    2.3521   51.4884 O.3     1  ZINC000443394081   -0.3000
     22 C22        -1.5746    2.2528   50.1299 C.3     1  ZINC000443394081    0.1000
     23 C23        -0.0686    2.2734   50.0794 C.ar    1  ZINC000443394081   -0.0800
     24 C24         0.6518    2.7816   51.1436 C.ar    1  ZINC000443394081   -0.0800
     25 C25         2.0335    2.8006   51.0973 C.ar    1  ZINC000443394081   -0.1100
     26 C26         2.6952    2.3118   49.9866 C.ar    1  ZINC000443394081   -0.1000
     27 C27         1.9756    1.8033   48.9214 C.ar    1  ZINC000443394081   -0.1100
     28 C28         0.5934    1.7783   48.9697 C.ar    1  ZINC000443394081   -0.0300
     29 Cl29       -0.3108    1.1398   47.6325 Cl      1  ZINC000443394081   -0.0700
     30 H30        -2.5794    4.6646   55.5258 H       1  ZINC000443394081    0.1000
     31 H31        -3.9314    5.2368   54.5195 H       1  ZINC000443394081    0.0600
     32 H32        -4.0871    3.7221   55.4412 H       1  ZINC000443394081    0.0600
     33 H33        -5.4786    3.8367   53.9672 H       1  ZINC000443394081    0.1500
     34 H34        -7.7806    0.0912   51.8845 H       1  ZINC000443394081    0.0700
     35 H35        -6.8134    0.5830   53.3083 H       1  ZINC000443394081    0.0800
     36 H36        -8.8665   -1.1470   53.6361 H       1  ZINC000443394081    0.0900
     37 H37        -8.6405    0.1766   54.8284 H       1  ZINC000443394081    0.0800
     38 H38       -10.8012    1.1513   55.2830 H       1  ZINC000443394081    0.0600
     39 H39       -12.1079    1.0959   54.0756 H       1  ZINC000443394081    0.0600
     40 H40       -11.4297   -0.4170   54.7232 H       1  ZINC000443394081    0.0600
     41 H41        -9.9444    4.0016   53.7783 H       1  ZINC000443394081    0.0600
     42 H42       -11.0320    2.7803   54.4810 H       1  ZINC000443394081    0.0400
     43 H43        -9.2006    3.3208   55.9328 H       1  ZINC000443394081    0.3700
     44 H44        -6.3149    1.8469   50.2587 H       1  ZINC000443394081    0.1400
     45 H45        -3.9059    1.5444   49.8816 H       1  ZINC000443394081    0.1400
     46 H46        -1.9399    1.3203   49.6996 H       1  ZINC000443394081    0.0800
     47 H47        -1.9688    3.0946   49.5607 H       1  ZINC000443394081    0.0800
     48 H48         0.1353    3.1643   52.0115 H       1  ZINC000443394081    0.1400
     49 H49         2.5960    3.1978   51.9294 H       1  ZINC000443394081    0.1300
     50 H50         3.7744    2.3276   49.9507 H       1  ZINC000443394081    0.1300
     51 H51         2.4928    1.4213   48.0535 H       1  ZINC000443394081    0.1400
@<TRIPOS>BOND
     1     1     2    1
     2     1    30    1
     3     1    31    1
     4     1    32    1
     5     2     3    1
     6     3    20   ar
     7     3     4   ar
     8     4     5   ar
     9     4    33    1
    10     5     6    1
    11     5    18   ar
    12     6     7    2
    13     6     8   am
    14     8    14    1
    15     8     9    1
    16     9    10    1
    17     9    34    1
    18     9    35    1
    19    10    11    1
    20    10    36    1
    21    10    37    1
    22    11    12    1
    23    11    13    1
    24    11    14    1
    25    13    38    1
    26    13    39    1
    27    13    40    1
    28    14    15    1
    29    14    16    1
    30    16    17    1
    31    16    41    1
    32    16    42    1
    33    17    43    1
    34    18    19   ar
    35    18    44    1
    36    19    20   ar
    37    19    45    1
    38    20    21    1
    39    21    22    1
    40    22    23    1
    41    22    46    1
    42    22    47    1
    43    23    28   ar
    44    23    24   ar
    45    24    25   ar
    46    24    48    1
    47    25    26   ar
    48    25    49    1
    49    26    27   ar
    50    26    50    1
    51    27    28   ar
    52    27    51    1
    53    28    29    1
@<TRIPOS>SUBSTRUCTURE
     1 ZINC000443394081        1 TEMP              0 ****  ****    0 ROOT


##########                                Name:    ZINC000451500596
##########                DOCK_Rotatable_Bonds:                   7
##########                         Heavy_Atoms:                  25
##########                    Molecular_Weight:             365.497
##########                DOCK_Rotatable_Bonds:                   7
##########                       Formal_Charge:           0.0400004
##########                     HBond_Acceptors:                   7
##########                        HBond_Donors:                   2
##########                         Heavy_Atoms:                  25
##########                          Grid_Score:          -29.289351
##########                     Grid_vdw_energy:          -27.715672
##########                      Grid_es_energy:           -1.573679
##########           Internal_energy_repulsive:           11.337133

@<TRIPOS>MOLECULE
ZINC000451500596
 52 54 1 0 0
SMALL
USER_CHARGES


@<TRIPOS>ATOM
      1 C1        -15.2427    0.4930   47.1579 C.3     1  ZINC000451500596   -0.6700
      2 S2        -14.7537   -0.8038   48.3282 S.o2    1  ZINC000451500596    2.6100
      3 O3        -15.6192   -0.8105   49.4553 O.2     1  ZINC000451500596   -0.9500
      4 O4        -14.4401   -2.0058   47.6381 O.2     1  ZINC000451500596   -0.9600
      5 N5        -13.3005   -0.2887   48.9322 N.am    1  ZINC000451500596   -1.1200
      6 C6        -13.2144    0.9892   49.6435 C.3     1  ZINC000451500596    0.1200
      7 C7        -12.7779    0.7402   51.0886 C.3     1  ZINC000451500596   -0.1000
      8 H8        -12.0489   -0.0694   51.1240 H       1  ZINC000451500596    0.0900
      9 C9        -14.0028    0.3863   51.9571 C.3     1  ZINC000451500596   -0.1200
     10 C10       -13.7146    1.0699   53.3168 C.3     1  ZINC000451500596   -0.1300
     11 C11       -13.0500    2.4039   52.8947 C.3     1  ZINC000451500596   -0.1300
     12 C12       -12.1710    2.0225   51.6843 C.3     1  ZINC000451500596    0.1400
     13 H13       -12.1878    2.8223   50.9440 H       1  ZINC000451500596    0.1000
     14 N14       -10.7953    1.7730   52.1221 N.am    1  ZINC000451500596   -0.7200
     15 C15        -9.9089    2.7871   52.1694 C.2     1  ZINC000451500596    0.5300
     16 O16       -10.2496    3.9059   51.8482 O.2     1  ZINC000451500596   -0.5300
     17 C17        -8.4943    2.5310   52.6214 C.3     1  ZINC000451500596   -0.1300
     18 H18        -8.2868    3.0595   53.5518 H       1  ZINC000451500596    0.1000
     19 C19        -8.2379    1.0097   52.7858 C.3     1  ZINC000451500596   -0.1200
     20 C20        -6.7066    0.9251   52.5681 C.3     1  ZINC000451500596    0.0500
     21 N21        -6.4195    1.9209   51.5138 N.3     1  ZINC000451500596   -0.4900
     22 C22        -5.1682    2.5099   51.7088 C.ar    1  ZINC000451500596    0.0800
     23 C23        -4.1978    2.4273   50.7182 C.ar    1  ZINC000451500596   -0.0900
     24 C24        -2.9617    3.0112   50.9142 C.ar    1  ZINC000451500596   -0.1100
     25 C25        -2.6893    3.6771   52.0951 C.ar    1  ZINC000451500596   -0.1200
     26 C26        -3.6529    3.7612   53.0834 C.ar    1  ZINC000451500596   -0.1100
     27 C27        -4.8931    3.1845   52.8917 C.ar    1  ZINC000451500596   -0.1500
     28 C28        -7.4884    2.9407   51.5251 C.3     1  ZINC000451500596    0.0600
     29 H29       -15.3349    1.4424   47.6852 H       1  ZINC000451500596    0.1300
     30 H30       -14.4866    0.5825   46.3779 H       1  ZINC000451500596    0.1300
     31 H31       -16.2007    0.2333   46.7071 H       1  ZINC000451500596    0.1300
     32 H32       -12.5061   -0.8330   48.8151 H       1  ZINC000451500596    0.4200
     33 H33       -12.4856    1.6317   49.1495 H       1  ZINC000451500596    0.0700
     34 H34       -14.1902    1.4749   49.6372 H       1  ZINC000451500596    0.0900
     35 H35       -14.9138    0.7883   51.5136 H       1  ZINC000451500596    0.0800
     36 H36       -14.0827   -0.6934   52.0823 H       1  ZINC000451500596    0.0700
     37 H37       -14.6412    1.2550   53.8602 H       1  ZINC000451500596    0.0700
     38 H38       -13.0289    0.4686   53.9137 H       1  ZINC000451500596    0.0700
     39 H39       -13.8072    3.1315   52.6026 H       1  ZINC000451500596    0.0800
     40 H40       -12.4346    2.7962   53.7041 H       1  ZINC000451500596    0.0700
     41 H41       -10.5225    0.8780   52.3778 H       1  ZINC000451500596    0.4000
     42 H42        -8.5092    0.6739   53.7868 H       1  ZINC000451500596    0.0800
     43 H43        -8.7724    0.4394   52.0261 H       1  ZINC000451500596    0.0800
     44 H44        -6.1780    1.1814   53.4863 H       1  ZINC000451500596    0.0600
     45 H45        -6.4255   -0.0735   52.2337 H       1  ZINC000451500596    0.0900
     46 H46        -4.4098    1.9069   49.7959 H       1  ZINC000451500596    0.1300
     47 H47        -2.2069    2.9474   50.1444 H       1  ZINC000451500596    0.1300
     48 H48        -1.7216    4.1322   52.2461 H       1  ZINC000451500596    0.1200
     49 H49        -3.4368    4.2820   54.0045 H       1  ZINC000451500596    0.1200
     50 H50        -5.6453    3.2507   53.6637 H       1  ZINC000451500596    0.1200
     51 H51        -7.9882    2.9647   50.5568 H       1  ZINC000451500596    0.1000
     52 H52        -7.0648    3.9193   51.7507 H       1  ZINC000451500596    0.0700
@<TRIPOS>BOND
     1     1     2    1
     2     1    29    1
     3     1    30    1
     4     1    31    1
     5     2     3    2
     6     2     4    2
     7     2     5   am
     8     5     6    1
     9     5    32    1
    10     6     7    1
    11     6    33    1
    12     6    34    1
    13     7     8    1
    14     7    12    1
    15     7     9    1
    16     9    10    1
    17     9    35    1
    18     9    36    1
    19    10    11    1
    20    10    37    1
    21    10    38    1
    22    11    12    1
    23    11    39    1
    24    11    40    1
    25    12    13    1
    26    12    14    1
    27    14    15   am
    28    14    41    1
    29    15    16    2
    30    15    17    1
    31    17    18    1
    32    17    28    1
    33    17    19    1
    34    19    20    1
    35    19    42    1
    36    19    43    1
    37    20    21    1
    38    20    44    1
    39    20    45    1
    40    21    22    1
    41    21    28    1
    42    22    27   ar
    43    22    23   ar
    44    23    24   ar
    45    23    46    1
    46    24    25   ar
    47    24    47    1
    48    25    26   ar
    49    25    48    1
    50    26    27   ar
    51    26    49    1
    52    27    50    1
    53    28    51    1
    54    28    52    1
@<TRIPOS>SUBSTRUCTURE
     1 ZINC000451500596        1 TEMP              0 ****  ****    0 ROOT


##########                                Name:    ZINC001248546333
##########                DOCK_Rotatable_Bonds:                   6
##########                         Heavy_Atoms:                  27
##########                    Molecular_Weight:             378.397
##########                DOCK_Rotatable_Bonds:                   6
##########                       Formal_Charge:         3.94881e-07
##########                     HBond_Acceptors:                   8
##########                        HBond_Donors:                   1
##########                         Heavy_Atoms:                  27
##########                          Grid_Score:          -29.276777
##########                     Grid_vdw_energy:          -27.620043
##########                      Grid_es_energy:           -1.656734
##########           Internal_energy_repulsive:           30.762682

@<TRIPOS>MOLECULE
ZINC001248546333
 48 50 1 0 0
SMALL
USER_CHARGES


@<TRIPOS>ATOM
      1 C1          1.3752    4.7065   63.2473 C.3     1  ZINC001248546333   -0.1200
      2 C2          1.1512    3.6659   62.1804 C.ar    1  ZINC001248546333   -0.0800
      3 C3          1.6837    2.3982   62.3304 C.ar    1  ZINC001248546333   -0.1200
      4 C4          1.4826    1.4371   61.3555 C.ar    1  ZINC001248546333   -0.1100
      5 C5          0.7484    1.7382   60.2270 C.ar    1  ZINC001248546333   -0.1100
      6 C6          0.2081    3.0151   60.0699 C.ar    1  ZINC001248546333   -0.0600
      7 C7         -0.5797    3.3445   58.8632 C.2     1  ZINC001248546333   -0.0600
      8 C8         -1.0607    4.5598   58.7598 C.2     1  ZINC001248546333   -0.1700
      9 C9         -1.8923    5.0253   57.5969 C.3     1  ZINC001248546333    0.1500
     10 N10        -1.8369    4.0159   56.5297 N.am    1  ZINC001248546333   -0.6300
     11 C11        -1.6818    4.3691   55.2383 C.2     1  ZINC001248546333    0.7200
     12 O12        -1.5846    5.5428   54.9366 O.2     1  ZINC001248546333   -0.5800
     13 N13        -1.6345    3.4211   54.2814 N.am    1  ZINC001248546333   -0.7500
     14 C14        -1.4659    3.8050   52.8777 C.3     1  ZINC001248546333    0.2000
     15 C15        -2.4004    2.9924   52.0190 C.2     1  ZINC001248546333    0.0700
     16 C16        -3.7315    2.8412   52.2103 C.2     1  ZINC001248546333   -0.2000
     17 C17        -4.2210    2.0136   51.1945 C.2     1  ZINC001248546333   -0.0200
     18 C18        -5.6543    1.5816   51.0206 C.3     1  ZINC001248546333    0.5600
     19 F19        -6.3717    2.5949   50.3759 F       1  ZINC001248546333   -0.1700
     20 F20        -5.6994    0.4152   50.2496 F       1  ZINC001248546333   -0.1700
     21 F21        -6.2222    1.3338   52.2749 F       1  ZINC001248546333   -0.1600
     22 N22        -3.2200    1.6800   50.4211 N.2     1  ZINC001248546333   -0.2200
     23 N23        -2.0608    2.2899   50.9180 N.pl3   1  ZINC001248546333   -0.3400
     24 C24        -0.7158    2.1775   50.3482 C.3     1  ZINC001248546333    0.0900
     25 C25        -1.9582    2.6029   56.9283 C.3     1  ZINC001248546333    0.1300
     26 C26        -0.7700    2.2679   57.8365 C.3     1  ZINC001248546333   -0.1000
     27 C27         0.4104    3.9782   61.0588 C.ar    1  ZINC001248546333   -0.1100
     28 H28         0.5737    4.6501   63.9838 H       1  ZINC001248546333    0.0700
     29 H29         2.3320    4.5249   63.7368 H       1  ZINC001248546333    0.0700
     30 H30         1.3819    5.6972   62.7928 H       1  ZINC001248546333    0.0700
     31 H31         2.2592    2.1575   63.2120 H       1  ZINC001248546333    0.1200
     32 H32         1.9016    0.4493   61.4781 H       1  ZINC001248546333    0.1200
     33 H33         0.5925    0.9872   59.4666 H       1  ZINC001248546333    0.1200
     34 H34        -0.8487    5.2632   59.5514 H       1  ZINC001248546333    0.1200
     35 H35        -2.9251    5.1593   57.9182 H       1  ZINC001248546333    0.0800
     36 H36        -1.5000    5.9714   57.2242 H       1  ZINC001248546333    0.0800
     37 H37        -1.7120    2.4847   54.5222 H       1  ZINC001248546333    0.4000
     38 H38        -1.6940    4.8645   52.7610 H       1  ZINC001248546333    0.1000
     39 H39        -0.4366    3.6191   52.5712 H       1  ZINC001248546333    0.0900
     40 H40        -4.3129    3.2815   53.0069 H       1  ZINC001248546333    0.1700
     41 H41        -0.5630    2.9720   49.6178 H       1  ZINC001248546333    0.0900
     42 H42         0.0243    2.2676   51.1434 H       1  ZINC001248546333    0.1000
     43 H43        -0.6080    1.2092   49.8596 H       1  ZINC001248546333    0.1000
     44 H44        -2.8932    2.4510   57.4675 H       1  ZINC001248546333    0.0700
     45 H45        -1.9348    1.9670   56.0433 H       1  ZINC001248546333    0.1000
     46 H46         0.1317    2.1755   57.2311 H       1  ZINC001248546333    0.0800
     47 H47        -0.9592    1.3216   58.3432 H       1  ZINC001248546333    0.0900
     48 H48        -0.0051    4.9684   60.9431 H       1  ZINC001248546333    0.1200
@<TRIPOS>BOND
     1     1     2    1
     2     1    28    1
     3     1    29    1
     4     1    30    1
     5     2    27   ar
     6     2     3   ar
     7     3     4   ar
     8     3    31    1
     9     4     5   ar
    10     4    32    1
    11     5     6   ar
    12     5    33    1
    13     6     7    1
    14     6    27   ar
    15     7    26    1
    16     7     8    2
    17     8     9    1
    18     8    34    1
    19     9    10    1
    20     9    35    1
    21     9    36    1
    22    10    11   am
    23    10    25    1
    24    11    12    2
    25    11    13   am
    26    13    14    1
    27    13    37    1
    28    14    15    1
    29    14    38    1
    30    14    39    1
    31    15    23    1
    32    15    16    2
    33    16    17    1
    34    16    40    1
    35    17    18    1
    36    17    22    2
    37    18    19    1
    38    18    20    1
    39    18    21    1
    40    22    23    1
    41    23    24    1
    42    24    41    1
    43    24    42    1
    44    24    43    1
    45    25    26    1
    46    25    44    1
    47    25    45    1
    48    26    46    1
    49    26    47    1
    50    27    48    1
@<TRIPOS>SUBSTRUCTURE
     1 ZINC001248546333        1 TEMP              0 ****  ****    0 ROOT


##########                                Name:    ZINC000963156778
##########                DOCK_Rotatable_Bonds:                   6
##########                         Heavy_Atoms:                  24
##########                    Molecular_Weight:             349.414
##########                DOCK_Rotatable_Bonds:                   6
##########                       Formal_Charge:         -0.00999984
##########                     HBond_Acceptors:                   9
##########                        HBond_Donors:                   2
##########                         Heavy_Atoms:                  24
##########                          Grid_Score:          -29.240448
##########                     Grid_vdw_energy:          -27.946377
##########                      Grid_es_energy:           -1.294070
##########           Internal_energy_repulsive:            9.304246

@<TRIPOS>MOLECULE
ZINC000963156778
 43 46 1 0 0
SMALL
USER_CHARGES


@<TRIPOS>ATOM
      1 C1         -9.8667   -0.6454   58.4047 C.3     1  ZINC000963156778   -0.0800
      2 C2        -10.8323   -1.5473   57.6798 C.2     1  ZINC000963156778    0.0300
      3 C3        -11.3384   -1.2772   56.4540 C.2     1  ZINC000963156778   -0.2600
      4 C4        -11.0653   -0.0783   55.5827 C.3     1  ZINC000963156778    0.1300
      5 N5         -9.6462   -0.0619   55.2032 N.3     1  ZINC000963156778   -0.5000
      6 C6         -9.0687    1.2977   55.3607 C.3     1  ZINC000963156778    0.0600
      7 C7         -7.8181    1.2963   54.4556 C.3     1  ZINC000963156778   -0.1700
      8 H8         -6.8461    1.4030   54.9371 H       1  ZINC000963156778    0.1200
      9 C9         -8.0873    0.2026   53.4017 C.3     1  ZINC000963156778   -0.1700
     10 H10        -7.3115   -0.4961   53.0883 H       1  ZINC000963156778    0.1200
     11 C11        -9.4779   -0.3649   53.7587 C.3     1  ZINC000963156778    0.0600
     12 C12        -7.9853    1.7154   52.9936 C.3     1  ZINC000963156778    0.1200
     13 H13        -8.9082    2.2237   52.7145 H       1  ZINC000963156778    0.1400
     14 N14        -6.7865    2.1391   52.2659 N.am    1  ZINC000963156778   -0.7000
     15 C15        -6.1665    3.2883   52.5997 C.2     1  ZINC000963156778    0.5100
     16 O16        -6.6003    3.9709   53.5035 O.2     1  ZINC000963156778   -0.5000
     17 C17        -4.9344    3.7250   51.8499 C.3     1  ZINC000963156778   -0.1300
     18 C18        -3.8844    2.6135   51.9030 C.3     1  ZINC000963156778   -0.1100
     19 H19        -3.9890    2.0319   52.8190 H       1  ZINC000963156778    0.1300
     20 C20        -2.4635    3.2033   51.7939 C.3     1  ZINC000963156778   -0.1600
     21 C21        -1.9179    2.5817   50.5269 C.2     1  ZINC000963156778    0.5300
     22 O22        -0.8139    2.7797   50.0666 O.2     1  ZINC000963156778   -0.4800
     23 N23        -2.8472    1.7782   49.9949 N.am    1  ZINC000963156778   -0.6900
     24 C24        -3.9949    1.7182   50.6883 C.2     1  ZINC000963156778    0.5200
     25 O25        -4.9636    1.0547   50.3865 O.2     1  ZINC000963156778   -0.4500
     26 S26       -12.3649   -2.6173   56.1179 S.3     1  ZINC000963156778    0.4500
     27 N27       -12.0943   -3.3684   57.4640 N.2     1  ZINC000963156778   -0.2900
     28 N28       -11.2737   -2.6893   58.1662 N.2     1  ZINC000963156778   -0.2400
     29 H29        -8.8453   -0.9199   58.1410 H       1  ZINC000963156778    0.0900
     30 H30       -10.0505    0.3897   58.1169 H       1  ZINC000963156778    0.0800
     31 H31       -10.0059   -0.7538   59.4803 H       1  ZINC000963156778    0.0800
     32 H32       -11.6809   -0.1338   54.6848 H       1  ZINC000963156778    0.1000
     33 H33       -11.3051    0.8321   56.1319 H       1  ZINC000963156778    0.0700
     34 H34        -9.7793    2.0536   55.0263 H       1  ZINC000963156778    0.0600
     35 H35        -8.7865    1.4730   56.3988 H       1  ZINC000963156778    0.0800
     36 H36        -9.5037   -1.4415   53.5906 H       1  ZINC000963156778    0.1000
     37 H37       -10.2524    0.1308   53.1735 H       1  ZINC000963156778    0.0500
     38 H38        -6.4390    1.5926   51.5438 H       1  ZINC000963156778    0.4000
     39 H39        -5.1945    3.9299   50.8115 H       1  ZINC000963156778    0.1000
     40 H40        -4.5311    4.6280   52.3085 H       1  ZINC000963156778    0.1200
     41 H41        -2.5048    4.2887   51.7017 H       1  ZINC000963156778    0.1200
     42 H42        -1.8605    2.9130   52.6543 H       1  ZINC000963156778    0.1300
     43 H43        -2.7028    1.2788   49.1759 H       1  ZINC000963156778    0.4200
@<TRIPOS>BOND
     1     1     2    1
     2     1    29    1
     3     1    30    1
     4     1    31    1
     5     2    28    1
     6     2     3    2
     7     3     4    1
     8     3    26    1
     9     4     5    1
    10     4    32    1
    11     4    33    1
    12     5    11    1
    13     5     6    1
    14     6     7    1
    15     6    34    1
    16     6    35    1
    17     7     8    1
    18     7    12    1
    19     7     9    1
    20     9    10    1
    21     9    11    1
    22     9    12    1
    23    11    36    1
    24    11    37    1
    25    12    13    1
    26    12    14    1
    27    14    15   am
    28    14    38    1
    29    15    16    2
    30    15    17    1
    31    17    18    1
    32    17    39    1
    33    17    40    1
    34    18    19    1
    35    18    24    1
    36    18    20    1
    37    20    21    1
    38    20    41    1
    39    20    42    1
    40    21    22    2
    41    21    23   am
    42    23    24   am
    43    23    43    1
    44    24    25    2
    45    26    27    1
    46    27    28    2
@<TRIPOS>SUBSTRUCTURE
     1 ZINC000963156778        1 TEMP              0 ****  ****    0 ROOT


##########                                Name:    ZINC000053543817
##########                DOCK_Rotatable_Bonds:                   7
##########                         Heavy_Atoms:                  25
##########                    Molecular_Weight:             350.458
##########                DOCK_Rotatable_Bonds:                   7
##########                       Formal_Charge:           0.0199998
##########                     HBond_Acceptors:                   6
##########                        HBond_Donors:                   2
##########                         Heavy_Atoms:                  25
##########                          Grid_Score:          -29.234680
##########                     Grid_vdw_energy:          -28.904818
##########                      Grid_es_energy:           -0.329862
##########           Internal_energy_repulsive:           34.619186

@<TRIPOS>MOLECULE
ZINC000053543817
 55 56 1 0 0
SMALL
USER_CHARGES


@<TRIPOS>ATOM
      1 C1         -8.5100    0.1100   61.5977 C.3     1  ZINC000053543817   -0.0700
      2 C2         -9.3772   -0.3559   60.4566 C.2     1  ZINC000053543817   -0.0200
      3 C3         -9.0503   -0.3111   59.1499 C.2     1  ZINC000053543817   -0.1800
      4 C4        -10.1435   -0.8436   58.4429 C.2     1  ZINC000053543817   -0.1900
      5 C5        -11.0780   -1.1855   59.3535 C.2     1  ZINC000053543817    0.0000
      6 C6        -12.4116   -1.7983   59.0017 C.3     1  ZINC000053543817   -0.0300
      7 C7        -12.3364   -2.3316   57.5660 C.3     1  ZINC000053543817   -0.0500
      8 C8        -11.4163   -3.5534   57.5236 C.3     1  ZINC000053543817   -0.1500
      9 C9        -13.7368   -2.7315   57.0969 C.3     1  ZINC000053543817   -0.1400
     10 C10       -11.7813   -1.2428   56.6436 C.3     1  ZINC000053543817   -0.1200
     11 C11       -10.2957   -1.0197   56.9547 C.3     1  ZINC000053543817    0.2200
     12 H12        -9.7182   -1.8836   56.6259 H       1  ZINC000053543817    0.1000
     13 N13        -9.8220    0.1822   56.2640 N.am    1  ZINC000053543817   -0.7100
     14 C14        -9.5613    0.1414   54.9423 C.2     1  ZINC000053543817    0.5100
     15 O15        -9.7174   -0.8908   54.3251 O.2     1  ZINC000053543817   -0.5300
     16 C16        -9.0757    1.3784   54.2316 C.3     1  ZINC000053543817    0.1400
     17 H17        -8.6147    2.0541   54.9519 H       1  ZINC000053543817    0.1200
     18 C18       -10.2589    2.0786   53.5604 C.3     1  ZINC000053543817   -0.1600
     19 N19        -8.0902    1.0022   53.2149 N.am    1  ZINC000053543817   -0.7000
     20 C20        -7.2786    1.9383   52.6841 C.2     1  ZINC000053543817    0.6600
     21 O21        -7.3654    3.0944   53.0477 O.2     1  ZINC000053543817   -0.5700
     22 O22        -6.3719    1.5922   51.7510 O.3     1  ZINC000053543817   -0.3600
     23 C23        -5.4789    2.6361   51.2805 C.3     1  ZINC000053543817    0.1400
     24 C24        -4.7099    3.2220   52.4663 C.3     1  ZINC000053543817   -0.1800
     25 C25        -4.4904    2.0458   50.2730 C.3     1  ZINC000053543817   -0.1400
     26 C26        -6.2957    3.7405   50.6066 C.3     1  ZINC000053543817   -0.1800
     27 O27       -10.6057   -0.8918   60.5709 O.3     1  ZINC000053543817   -0.1700
     28 H28        -9.0318   -0.0531   62.5407 H       1  ZINC000053543817    0.0800
     29 H29        -7.5761   -0.4522   61.5974 H       1  ZINC000053543817    0.0800
     30 H30        -8.2948    1.1721   61.4805 H       1  ZINC000053543817    0.0800
     31 H31        -8.1287    0.0614   58.7279 H       1  ZINC000053543817    0.1400
     32 H32       -12.6301   -2.6181   59.6861 H       1  ZINC000053543817    0.0900
     33 H33       -13.1925   -1.0410   59.0709 H       1  ZINC000053543817    0.0900
     34 H34       -11.8120   -4.3291   58.1792 H       1  ZINC000053543817    0.0600
     35 H35       -11.3628   -3.9326   56.5031 H       1  ZINC000053543817    0.0600
     36 H36       -10.4189   -3.2688   57.8583 H       1  ZINC000053543817    0.0600
     37 H37       -14.3925   -1.8614   57.1275 H       1  ZINC000053543817    0.0600
     38 H38       -13.6836   -3.1106   56.0763 H       1  ZINC000053543817    0.0600
     39 H39       -14.1318   -3.5076   57.7526 H       1  ZINC000053543817    0.0600
     40 H40       -11.8924   -1.5547   55.6051 H       1  ZINC000053543817    0.0800
     41 H41       -12.3301   -0.3150   56.8053 H       1  ZINC000053543817    0.0700
     42 H42        -9.6961    1.0075   56.7579 H       1  ZINC000053543817    0.4000
     43 H43       -10.9922    2.3584   54.3168 H       1  ZINC000053543817    0.0800
     44 H44        -9.9078    2.9732   53.0462 H       1  ZINC000053543817    0.0800
     45 H45       -10.7199    1.4028   52.8400 H       1  ZINC000053543817    0.0700
     46 H46        -8.0217    0.0795   52.9238 H       1  ZINC000053543817    0.4200
     47 H47        -4.1279    2.4353   52.9464 H       1  ZINC000053543817    0.0600
     48 H48        -4.0395    4.0057   52.1132 H       1  ZINC000053543817    0.0700
     49 H49        -5.4142    3.6426   53.1841 H       1  ZINC000053543817    0.0900
     50 H50        -5.0383    1.6284   49.4282 H       1  ZINC000053543817    0.0700
     51 H51        -3.8201    2.8294   49.9198 H       1  ZINC000053543817    0.0800
     52 H52        -3.9085    1.2590   50.7531 H       1  ZINC000053543817    0.0700
     53 H53        -7.0000    4.1610   51.3244 H       1  ZINC000053543817    0.0900
     54 H54        -5.6254    4.5241   50.2534 H       1  ZINC000053543817    0.0700
     55 H55        -6.8436    3.3230   49.7619 H       1  ZINC000053543817    0.0600
@<TRIPOS>BOND
     1     1     2    1
     2     1    28    1
     3     1    29    1
     4     1    30    1
     5     2    27    1
     6     2     3    2
     7     3     4    1
     8     3    31    1
     9     4    11    1
    10     4     5    2
    11     5     6    1
    12     5    27    1
    13     6     7    1
    14     6    32    1
    15     6    33    1
    16     7     8    1
    17     7     9    1
    18     7    10    1
    19     8    34    1
    20     8    35    1
    21     8    36    1
    22     9    37    1
    23     9    38    1
    24     9    39    1
    25    10    11    1
    26    10    40    1
    27    10    41    1
    28    11    12    1
    29    11    13    1
    30    13    14   am
    31    13    42    1
    32    14    15    2
    33    14    16    1
    34    16    17    1
    35    16    18    1
    36    16    19    1
    37    18    43    1
    38    18    44    1
    39    18    45    1
    40    19    20   am
    41    19    46    1
    42    20    21    2
    43    20    22    1
    44    22    23    1
    45    23    24    1
    46    23    25    1
    47    23    26    1
    48    24    47    1
    49    24    48    1
    50    24    49    1
    51    25    50    1
    52    25    51    1
    53    25    52    1
    54    26    53    1
    55    26    54    1
    56    26    55    1
@<TRIPOS>SUBSTRUCTURE
     1 ZINC000053543817        1 TEMP              0 ****  ****    0 ROOT


##########                                Name:    ZINC000182378855
##########                DOCK_Rotatable_Bonds:                   8
##########                         Heavy_Atoms:                  27
##########                    Molecular_Weight:              394.83
##########                DOCK_Rotatable_Bonds:                   8
##########                       Formal_Charge:          -0.0200001
##########                     HBond_Acceptors:                   8
##########                        HBond_Donors:                   1
##########                         Heavy_Atoms:                  27
##########                          Grid_Score:          -29.232809
##########                     Grid_vdw_energy:          -26.904438
##########                      Grid_es_energy:           -2.328372
##########           Internal_energy_repulsive:           14.742640

@<TRIPOS>MOLECULE
ZINC000182378855
 47 49 1 0 0
SMALL
USER_CHARGES


@<TRIPOS>ATOM
      1 C1         -7.5181    0.2324   67.4009 C.3     1  ZINC000182378855    0.0300
      2 O2         -7.9170   -1.0169   66.8332 O.3     1  ZINC000182378855   -0.3900
      3 C3         -9.2867   -1.0605   66.4282 C.3     1  ZINC000182378855    0.0600
      4 C4         -9.5408    0.0169   65.3720 C.3     1  ZINC000182378855    0.0700
      5 O5         -8.7877   -0.2827   64.1951 O.3     1  ZINC000182378855   -0.2900
      6 C6         -8.8758    0.5977   63.1665 C.ar    1  ZINC000182378855    0.3300
      7 C7         -8.3090    0.2789   61.9398 C.ar    1  ZINC000182378855   -0.1300
      8 C8         -8.4080    1.1952   60.8911 C.ar    1  ZINC000182378855   -0.0600
      9 C9         -7.8193    0.8991   59.5640 C.2     1  ZINC000182378855    0.5600
     10 O10        -7.3179   -0.1870   59.3505 O.2     1  ZINC000182378855   -0.5200
     11 N11        -7.8400    1.8342   58.5938 N.am    1  ZINC000182378855   -0.7100
     12 C12        -7.2563    1.5421   57.2822 C.3     1  ZINC000182378855    0.1200
     13 H13        -6.8362    0.5364   57.2676 H       1  ZINC000182378855    0.1100
     14 C14        -6.1742    2.5861   56.9265 C.3     1  ZINC000182378855   -0.1700
     15 C15        -6.7078    3.2567   55.6411 C.3     1  ZINC000182378855    0.0400
     16 O16        -8.1371    3.0544   55.6855 O.3     1  ZINC000182378855   -0.3600
     17 C17        -8.3157    1.7055   56.1698 C.3     1  ZINC000182378855    0.1100
     18 H18        -8.1383    0.9880   55.3686 H       1  ZINC000182378855    0.1000
     19 C19        -9.7015    1.5303   56.7352 C.ar    1  ZINC000182378855   -0.0500
     20 C20       -10.2714    0.2722   56.7891 C.ar    1  ZINC000182378855   -0.1100
     21 C21       -11.5406    0.1086   57.3128 C.ar    1  ZINC000182378855   -0.0800
     22 C22       -12.2456    1.2056   57.7729 C.ar    1  ZINC000182378855   -0.0700
     23 Cl23      -13.8416    1.0014   58.4245 Cl      1  ZINC000182378855   -0.0400
     24 C24       -11.6769    2.4680   57.7140 C.ar    1  ZINC000182378855    0.1200
     25 F25       -12.3640    3.5409   58.1635 F       1  ZINC000182378855   -0.1200
     26 C26       -10.4041    2.6287   57.1946 C.ar    1  ZINC000182378855   -0.1300
     27 C27        -9.0785    2.4006   61.1268 C.ar    1  ZINC000182378855   -0.1900
     28 C28        -9.6133    2.6386   62.3766 C.ar    1  ZINC000182378855    0.1400
     29 N29        -9.5050    1.7470   63.3423 N.ar    1  ZINC000182378855   -0.5200
     30 H30        -8.1217    0.4390   68.2847 H       1  ZINC000182378855    0.0400
     31 H31        -6.4662    0.1843   67.6823 H       1  ZINC000182378855    0.0900
     32 H32        -7.6624    1.0268   66.6686 H       1  ZINC000182378855    0.0400
     33 H33        -9.5103   -2.0411   66.0081 H       1  ZINC000182378855    0.0600
     34 H34        -9.9268   -0.8806   67.2920 H       1  ZINC000182378855    0.0700
     35 H35       -10.6026    0.0425   65.1272 H       1  ZINC000182378855    0.0800
     36 H36        -9.2344    0.9875   65.7620 H       1  ZINC000182378855    0.0800
     37 H37        -7.7993   -0.6628   61.7991 H       1  ZINC000182378855    0.1600
     38 H38        -8.2413    2.7008   58.7639 H       1  ZINC000182378855    0.4000
     39 H39        -6.0736    3.3195   57.7265 H       1  ZINC000182378855    0.0900
     40 H40        -5.2197    2.0963   56.7337 H       1  ZINC000182378855    0.0900
     41 H41        -6.4751    4.3215   55.6441 H       1  ZINC000182378855    0.1000
     42 H42        -6.2824    2.7784   54.7589 H       1  ZINC000182378855    0.0700
     43 H43        -9.7233   -0.5844   56.4255 H       1  ZINC000182378855    0.1500
     44 H44       -11.9830   -0.8755   57.3584 H       1  ZINC000182378855    0.1500
     45 H45        -9.9596    3.6120   57.1484 H       1  ZINC000182378855    0.1500
     46 H46        -9.1764    3.1349   60.3409 H       1  ZINC000182378855    0.1400
     47 H47       -10.1321    3.5669   62.5653 H       1  ZINC000182378855    0.1700
@<TRIPOS>BOND
     1     1     2    1
     2     1    30    1
     3     1    31    1
     4     1    32    1
     5     2     3    1
     6     3     4    1
     7     3    33    1
     8     3    34    1
     9     4     5    1
    10     4    35    1
    11     4    36    1
    12     5     6    1
    13     6    29   ar
    14     6     7   ar
    15     7     8   ar
    16     7    37    1
    17     8     9    1
    18     8    27   ar
    19     9    10    2
    20     9    11   am
    21    11    12    1
    22    11    38    1
    23    12    13    1
    24    12    17    1
    25    12    14    1
    26    14    15    1
    27    14    39    1
    28    14    40    1
    29    15    16    1
    30    15    41    1
    31    15    42    1
    32    16    17    1
    33    17    18    1
    34    17    19    1
    35    19    26   ar
    36    19    20   ar
    37    20    21   ar
    38    20    43    1
    39    21    22   ar
    40    21    44    1
    41    22    23    1
    42    22    24   ar
    43    24    25    1
    44    24    26   ar
    45    26    45    1
    46    27    28   ar
    47    27    46    1
    48    28    29   ar
    49    28    47    1
@<TRIPOS>SUBSTRUCTURE
     1 ZINC000182378855        1 TEMP              0 ****  ****    0 ROOT


##########                                Name:    ZINC000464752079
##########                DOCK_Rotatable_Bonds:                   7
##########                         Heavy_Atoms:                  29
##########                    Molecular_Weight:             404.413
##########                DOCK_Rotatable_Bonds:                   7
##########                       Formal_Charge:         7.45058e-08
##########                     HBond_Acceptors:                   8
##########                        HBond_Donors:                   1
##########                         Heavy_Atoms:                  29
##########                          Grid_Score:          -29.207081
##########                     Grid_vdw_energy:          -28.716297
##########                      Grid_es_energy:           -0.490783
##########           Internal_energy_repulsive:           20.937586

@<TRIPOS>MOLECULE
ZINC000464752079
 51 54 1 0 0
SMALL
USER_CHARGES


@<TRIPOS>ATOM
      1 C1         -9.1659    0.4152   66.8944 C.3     1  ZINC000464752079   -0.1200
      2 C2         -7.8963    0.9379   66.2730 C.ar    1  ZINC000464752079   -0.0800
      3 C3         -6.6815    0.7181   66.8944 C.ar    1  ZINC000464752079   -0.1200
      4 C4         -5.5167    1.1976   66.3242 C.ar    1  ZINC000464752079   -0.1200
      5 C5         -5.5671    1.8964   65.1329 C.ar    1  ZINC000464752079   -0.1300
      6 C6         -6.7823    2.1155   64.5109 C.ar    1  ZINC000464752079   -0.0900
      7 C7         -7.9463    1.6324   65.0785 C.ar    1  ZINC000464752079   -0.0800
      8 C8         -9.2708    1.8712   64.4006 C.3     1  ZINC000464752079    0.2000
      9 H9         -9.9687    1.0752   64.6602 H       1  ZINC000464752079    0.0900
     10 C10        -9.8450    3.2357   64.8365 C.3     1  ZINC000464752079   -0.1200
     11 C11       -10.4808    3.7787   63.5294 C.3     1  ZINC000464752079   -0.1300
     12 C12        -9.4898    3.2543   62.4604 C.3     1  ZINC000464752079    0.1000
     13 N13        -9.0851    1.9176   62.9428 N.am    1  ZINC000464752079   -0.6300
     14 C14        -8.6209    0.9125   62.1743 C.2     1  ZINC000464752079    0.7200
     15 O15        -8.3177   -0.1502   62.6813 O.2     1  ZINC000464752079   -0.5700
     16 N16        -8.4926    1.0854   60.8439 N.am    1  ZINC000464752079   -0.7400
     17 C17        -7.9897   -0.0078   60.0083 C.3     1  ZINC000464752079    0.1900
     18 C18        -8.6642    0.0383   58.6614 C.ar    1  ZINC000464752079   -0.1200
     19 C19        -9.8397   -0.6587   58.4540 C.ar    1  ZINC000464752079   -0.0500
     20 C20       -10.4619   -0.6188   57.2170 C.ar    1  ZINC000464752079    0.0100
     21 C21        -9.9020    0.1250   56.1815 C.ar    1  ZINC000464752079    0.0800
     22 C22        -8.7244    0.8237   56.3920 C.ar    1  ZINC000464752079   -0.1800
     23 C23        -8.1077    0.7844   57.6332 C.ar    1  ZINC000464752079    0.1400
     24 O24        -6.9520    1.4705   57.8399 O.3     1  ZINC000464752079   -0.3100
     25 C25        -6.5178    2.3403   56.7926 C.3     1  ZINC000464752079    0.4100
     26 F26        -7.3991    3.4220   56.6893 F       1  ZINC000464752079   -0.2000
     27 F27        -5.2326    2.8117   57.0805 F       1  ZINC000464752079   -0.2000
     28 O28       -10.6961    0.0035   55.0779 O.3     1  ZINC000464752079   -0.3000
     29 C29       -11.5254   -1.1473   55.3253 C.3     1  ZINC000464752079    0.2100
     30 O30       -11.6078   -1.2068   56.7616 O.3     1  ZINC000464752079   -0.3000
     31 H31        -9.3623   -0.5921   66.5271 H       1  ZINC000464752079    0.0700
     32 H32        -9.0569    0.3918   67.9786 H       1  ZINC000464752079    0.0700
     33 H33        -9.9969    1.0679   66.6267 H       1  ZINC000464752079    0.0700
     34 H34        -6.6421    0.1720   67.8252 H       1  ZINC000464752079    0.1200
     35 H35        -4.5675    1.0264   66.8102 H       1  ZINC000464752079    0.1200
     36 H36        -4.6574    2.2715   64.6879 H       1  ZINC000464752079    0.1200
     37 H37        -6.8218    2.6618   63.5801 H       1  ZINC000464752079    0.1100
     38 H38       -10.6030    3.1061   65.6091 H       1  ZINC000464752079    0.0900
     39 H39        -9.0498    3.8961   65.1819 H       1  ZINC000464752079    0.0800
     40 H40       -11.4764    3.3623   63.3769 H       1  ZINC000464752079    0.0800
     41 H41       -10.5109    4.8683   63.5330 H       1  ZINC000464752079    0.0900
     42 H42        -9.9842    3.1730   61.4924 H       1  ZINC000464752079    0.0700
     43 H43        -8.6235    3.9121   62.3909 H       1  ZINC000464752079    0.0700
     44 H44        -8.7335    1.9337   60.4396 H       1  ZINC000464752079    0.4000
     45 H45        -6.9127    0.0996   59.8791 H       1  ZINC000464752079    0.0800
     46 H46        -8.2046   -0.9617   60.4899 H       1  ZINC000464752079    0.0800
     47 H47       -10.2735   -1.2355   59.2575 H       1  ZINC000464752079    0.1500
     48 H48        -8.2885    1.4013   55.5903 H       1  ZINC000464752079    0.1500
     49 H49        -6.5015    1.7937   55.8496 H       1  ZINC000464752079    0.1900
     50 H50       -12.5149   -1.0069   54.8904 H       1  ZINC000464752079    0.1400
     51 H51       -11.0568   -2.0489   54.9309 H       1  ZINC000464752079    0.0900
@<TRIPOS>BOND
     1     1     2    1
     2     1    31    1
     3     1    32    1
     4     1    33    1
     5     2     7   ar
     6     2     3   ar
     7     3     4   ar
     8     3    34    1
     9     4     5   ar
    10     4    35    1
    11     5     6   ar
    12     5    36    1
    13     6     7   ar
    14     6    37    1
    15     7     8    1
    16     8     9    1
    17     8    13    1
    18     8    10    1
    19    10    11    1
    20    10    38    1
    21    10    39    1
    22    11    12    1
    23    11    40    1
    24    11    41    1
    25    12    13    1
    26    12    42    1
    27    12    43    1
    28    13    14   am
    29    14    15    2
    30    14    16   am
    31    16    17    1
    32    16    44    1
    33    17    18    1
    34    17    45    1
    35    17    46    1
    36    18    23   ar
    37    18    19   ar
    38    19    20   ar
    39    19    47    1
    40    20    30    1
    41    20    21   ar
    42    21    22   ar
    43    21    28    1
    44    22    23   ar
    45    22    48    1
    46    23    24    1
    47    24    25    1
    48    25    26    1
    49    25    27    1
    50    25    49    1
    51    28    29    1
    52    29    30    1
    53    29    50    1
    54    29    51    1
@<TRIPOS>SUBSTRUCTURE
     1 ZINC000464752079        1 TEMP              0 ****  ****    0 ROOT


##########                                Name:    ZINC000676564986
##########                DOCK_Rotatable_Bonds:                   5
##########                         Heavy_Atoms:                  25
##########                    Molecular_Weight:             347.444
##########                DOCK_Rotatable_Bonds:                   5
##########                       Formal_Charge:          -0.0100005
##########                     HBond_Acceptors:                   6
##########                        HBond_Donors:                   1
##########                         Heavy_Atoms:                  25
##########                          Grid_Score:          -29.171164
##########                     Grid_vdw_energy:          -29.482033
##########                      Grid_es_energy:            0.310869
##########           Internal_energy_repulsive:            3.206018

@<TRIPOS>MOLECULE
ZINC000676564986
 42 45 1 0 0
SMALL
USER_CHARGES


@<TRIPOS>ATOM
      1 C1         -3.3608    2.8883   51.3894 C.3     1  ZINC000676564986    0.0800
      2 N2         -4.6013    2.1272   51.5578 N.pl3   1  ZINC000676564986   -0.4800
      3 C3         -5.0410    1.1143   50.7585 C.2     1  ZINC000676564986    0.2500
      4 N4         -6.1795    0.6629   51.1986 N.2     1  ZINC000676564986   -0.4600
      5 C5         -6.5418    1.3555   52.3051 C.ar    1  ZINC000676564986   -0.1100
      6 C6         -7.6387    1.3132   53.1822 C.ar    1  ZINC000676564986    0.5100
      7 N7         -8.6619    0.4009   52.9929 N.pl3   1  ZINC000676564986   -0.6900
      8 C8        -10.0327    0.7477   53.3759 C.3     1  ZINC000676564986    0.1700
      9 C9        -10.3984    0.0225   54.6453 C.ar    1  ZINC000676564986   -0.0800
     10 C10       -10.9184    0.7260   55.7165 C.ar    1  ZINC000676564986   -0.1100
     11 C11       -11.2546    0.0648   56.8811 C.ar    1  ZINC000676564986   -0.0700
     12 C12       -11.0697   -1.3092   56.9762 C.ar    1  ZINC000676564986   -0.1300
     13 S13       -11.4978   -2.1573   58.4602 S.3     1  ZINC000676564986   -0.0100
     14 C14       -10.5270   -1.3362   59.6801 C.ar    1  ZINC000676564986   -0.1000
     15 C15       -11.1039   -0.9465   60.8828 C.ar    1  ZINC000676564986   -0.1200
     16 C16       -10.3400   -0.3038   61.8367 C.ar    1  ZINC000676564986   -0.1000
     17 C17        -9.0024   -0.0476   61.5964 C.ar    1  ZINC000676564986   -0.1200
     18 C18        -8.4248   -0.4339   60.4005 C.ar    1  ZINC000676564986   -0.1000
     19 C19        -9.1813   -1.0819   59.4441 C.ar    1  ZINC000676564986   -0.1000
     20 C20       -10.5469   -2.0129   55.8978 C.ar    1  ZINC000676564986   -0.0700
     21 C21       -10.2183   -1.3460   54.7343 C.ar    1  ZINC000676564986   -0.1100
     22 N22        -7.6706    2.1696   54.1981 N.ar    1  ZINC000676564986   -0.5900
     23 C23        -6.6986    3.0432   54.3868 C.ar    1  ZINC000676564986    0.3600
     24 N24        -5.6525    3.1193   53.5910 N.ar    1  ZINC000676564986   -0.5600
     25 C25        -5.5307    2.2995   52.5523 C.ar    1  ZINC000676564986    0.3000
     26 H26        -2.5548    2.3939   51.9316 H       1  ZINC000676564986    0.0800
     27 H27        -3.1076    2.9407   50.3304 H       1  ZINC000676564986    0.0900
     28 H28        -3.4970    3.8964   51.7808 H       1  ZINC000676564986    0.0900
     29 H29        -4.5214    0.7417   49.8881 H       1  ZINC000676564986    0.2200
     30 H30        -8.4715   -0.4683   52.6066 H       1  ZINC000676564986    0.4200
     31 H31       -10.1034    1.8232   53.5385 H       1  ZINC000676564986    0.0800
     32 H32       -10.7175    0.4549   52.5800 H       1  ZINC000676564986    0.0800
     33 H33       -11.0616    1.7939   55.6420 H       1  ZINC000676564986    0.1300
     34 H34       -11.6603    0.6149   57.7173 H       1  ZINC000676564986    0.1400
     35 H35       -12.1486   -1.1459   61.0711 H       1  ZINC000676564986    0.1200
     36 H36       -10.7878   -0.0003   62.7715 H       1  ZINC000676564986    0.1300
     37 H37        -8.4074    0.4556   62.3441 H       1  ZINC000676564986    0.1300
     38 H38        -7.3800   -0.2324   60.2162 H       1  ZINC000676564986    0.1300
     39 H39        -8.7297   -1.3836   58.5107 H       1  ZINC000676564986    0.1300
     40 H40       -10.4019   -3.0808   55.9683 H       1  ZINC000676564986    0.1300
     41 H41        -9.8119   -1.8921   53.8960 H       1  ZINC000676564986    0.1300
     42 H42        -6.7644    3.7211   55.2250 H       1  ZINC000676564986    0.2000
@<TRIPOS>BOND
     1     1     2    1
     2     1    26    1
     3     1    27    1
     4     1    28    1
     5     2    25    1
     6     2     3    1
     7     3     4    2
     8     3    29    1
     9     4     5    1
    10     5    25   ar
    11     5     6   ar
    12     6     7    1
    13     6    22   ar
    14     7     8    1
    15     7    30    1
    16     8     9    1
    17     8    31    1
    18     8    32    1
    19     9    21   ar
    20     9    10   ar
    21    10    11   ar
    22    10    33    1
    23    11    12   ar
    24    11    34    1
    25    12    13    1
    26    12    20   ar
    27    13    14    1
    28    14    19   ar
    29    14    15   ar
    30    15    16   ar
    31    15    35    1
    32    16    17   ar
    33    16    36    1
    34    17    18   ar
    35    17    37    1
    36    18    19   ar
    37    18    38    1
    38    19    39    1
    39    20    21   ar
    40    20    40    1
    41    21    41    1
    42    22    23   ar
    43    23    24   ar
    44    23    42    1
    45    24    25   ar
@<TRIPOS>SUBSTRUCTURE
     1 ZINC000676564986        1 TEMP              0 ****  ****    0 ROOT


##########                                Name:    ZINC000581017854
##########                DOCK_Rotatable_Bonds:                   6
##########                         Heavy_Atoms:                  24
##########                    Molecular_Weight:             330.334
##########                DOCK_Rotatable_Bonds:                   6
##########                       Formal_Charge:           0.0099998
##########                     HBond_Acceptors:                   6
##########                        HBond_Donors:                   2
##########                         Heavy_Atoms:                  24
##########                          Grid_Score:          -29.159035
##########                     Grid_vdw_energy:          -26.192566
##########                      Grid_es_energy:           -2.966468
##########           Internal_energy_repulsive:            6.702577

@<TRIPOS>MOLECULE
ZINC000581017854
 40 42 1 0 0
SMALL
USER_CHARGES


@<TRIPOS>ATOM
      1 C1         -7.1905    4.0938   55.3632 C.3     1  ZINC000581017854   -0.1600
      2 C2         -5.6636    4.1670   55.4282 C.3     1  ZINC000581017854    0.1500
      3 H3         -5.3451    5.2049   55.3312 H       1  ZINC000581017854    0.1100
      4 C4         -5.1829    3.6093   56.7694 C.3     1  ZINC000581017854    0.0500
      5 O5         -4.1143    4.4178   57.2660 O.3     1  ZINC000581017854   -0.3100
      6 C6         -2.9405    3.7895   57.5386 C.ar    1  ZINC000581017854    0.1600
      7 C7         -2.4393    2.8418   56.6582 C.ar    1  ZINC000581017854   -0.2200
      8 C8         -1.2457    2.2036   56.9363 C.ar    1  ZINC000581017854   -0.0500
      9 C9         -0.5502    2.5079   58.0912 C.ar    1  ZINC000581017854   -0.1900
     10 C10        -1.0478    3.4533   58.9727 C.ar    1  ZINC000581017854    0.1400
     11 F11        -0.3664    3.7493   60.1012 F       1  ZINC000581017854   -0.1300
     12 C12        -2.2391    4.0993   58.6945 C.ar    1  ZINC000581017854   -0.1900
     13 N13        -5.0899    3.3760   54.3366 N.am    1  ZINC000581017854   -0.7300
     14 C14        -4.8855    3.9410   53.1303 C.2     1  ZINC000581017854    0.5900
     15 O15        -5.1786    5.1076   52.9473 O.2     1  ZINC000581017854   -0.5400
     16 C16        -4.3086    3.1483   52.0361 C.2     1  ZINC000581017854   -0.2200
     17 C17        -4.9782    2.3101   51.1947 C.2     1  ZINC000581017854    0.1100
     18 N18        -4.1104    1.7554   50.3139 N.pl3   1  ZINC000581017854   -0.5700
     19 C19        -2.8297    2.2128   50.5467 C.ar    1  ZINC000581017854    0.1100
     20 C20        -1.6041    1.9598   49.9402 C.ar    1  ZINC000581017854   -0.1600
     21 C21        -0.4640    2.5821   50.4065 C.ar    1  ZINC000581017854    0.1200
     22 F22         0.7245    2.3338   49.8140 F       1  ZINC000581017854   -0.1400
     23 C23        -0.5278    3.4623   51.4794 C.ar    1  ZINC000581017854   -0.1700
     24 C24        -1.7337    3.7243   52.0920 C.ar    1  ZINC000581017854   -0.0300
     25 C25        -2.8922    3.1074   51.6273 C.ar    1  ZINC000581017854   -0.0700
     26 H26        -7.6173    4.6823   56.1755 H       1  ZINC000581017854    0.0700
     27 H27        -7.5329    4.4911   54.4078 H       1  ZINC000581017854    0.0700
     28 H28        -7.5090    3.0559   55.4603 H       1  ZINC000581017854    0.0700
     29 H29        -6.0069    3.6180   57.4828 H       1  ZINC000581017854    0.0700
     30 H30        -4.8314    2.5866   56.6327 H       1  ZINC000581017854    0.0800
     31 H31        -2.9821    2.6026   55.7557 H       1  ZINC000581017854    0.1400
     32 H32        -0.8560    1.4658   56.2505 H       1  ZINC000581017854    0.1400
     33 H33         0.3824    2.0076   58.3067 H       1  ZINC000581017854    0.1400
     34 H34        -2.6275    4.8367   59.3813 H       1  ZINC000581017854    0.1400
     35 H35        -4.8574    2.4456   54.4821 H       1  ZINC000581017854    0.4000
     36 H36        -6.0403    2.1171   51.2255 H       1  ZINC000581017854    0.1800
     37 H37        -4.3551    1.1252   49.6182 H       1  ZINC000581017854    0.4200
     38 H38        -1.5445    1.2769   49.1057 H       1  ZINC000581017854    0.1400
     39 H39         0.3717    3.9426   51.8351 H       1  ZINC000581017854    0.1400
     40 H40        -1.7808    4.4087   52.9262 H       1  ZINC000581017854    0.1500
@<TRIPOS>BOND
     1     1     2    1
     2     1    26    1
     3     1    27    1
     4     1    28    1
     5     2     3    1
     6     2     4    1
     7     2    13    1
     8     4     5    1
     9     4    29    1
    10     4    30    1
    11     5     6    1
    12     6    12   ar
    13     6     7   ar
    14     7     8   ar
    15     7    31    1
    16     8     9   ar
    17     8    32    1
    18     9    10   ar
    19     9    33    1
    20    10    11    1
    21    10    12   ar
    22    12    34    1
    23    13    14   am
    24    13    35    1
    25    14    15    2
    26    14    16    1
    27    16    25    1
    28    16    17    2
    29    17    18    1
    30    17    36    1
    31    18    19    1
    32    18    37    1
    33    19    25   ar
    34    19    20   ar
    35    20    21   ar
    36    20    38    1
    37    21    22    1
    38    21    23   ar
    39    23    24   ar
    40    23    39    1
    41    24    25   ar
    42    24    40    1
@<TRIPOS>SUBSTRUCTURE
     1 ZINC000581017854        1 TEMP              0 ****  ****    0 ROOT


##########                                Name:    ZINC000672622940
##########                DOCK_Rotatable_Bonds:                   7
##########                         Heavy_Atoms:                  30
##########                    Molecular_Weight:             416.523
##########                DOCK_Rotatable_Bonds:                   7
##########                       Formal_Charge:          -0.0100002
##########                     HBond_Acceptors:                   9
##########                        HBond_Donors:                   1
##########                         Heavy_Atoms:                  30
##########                          Grid_Score:          -29.146584
##########                     Grid_vdw_energy:          -29.338919
##########                      Grid_es_energy:            0.192335
##########           Internal_energy_repulsive:          154.165634

@<TRIPOS>MOLECULE
ZINC000672622940
 62 65 1 0 0
SMALL
USER_CHARGES


@<TRIPOS>ATOM
      1 C1        -15.3537   -2.4475   60.4169 C.3     1  ZINC000672622940    0.0800
      2 N2        -15.1482   -1.9444   59.0565 N.am    1  ZINC000672622940   -0.6200
      3 C3        -15.3394   -0.5214   58.7650 C.3     1  ZINC000672622940    0.0700
      4 C4        -14.7832   -2.7906   58.0730 C.2     1  ZINC000672622940    0.5200
      5 O5        -14.6263   -3.9688   58.3140 O.2     1  ZINC000672622940   -0.5300
      6 C6        -14.5700   -2.2727   56.6739 C.3     1  ZINC000672622940   -0.1000
      7 H7        -14.0970   -3.0458   56.0684 H       1  ZINC000672622940    0.1000
      8 C8        -15.9192   -1.8968   56.0581 C.3     1  ZINC000672622940   -0.1300
      9 C9        -15.7028   -1.3709   54.6378 C.3     1  ZINC000672622940   -0.1100
     10 C10       -14.8010   -0.1358   54.6831 C.3     1  ZINC000672622940   -0.1300
     11 C11       -13.4518   -0.5117   55.2989 C.3     1  ZINC000672622940    0.1400
     12 H12       -12.9788   -1.2848   54.6934 H       1  ZINC000672622940    0.1000
     13 N13       -12.5883    0.6711   55.3423 N.am    1  ZINC000672622940   -0.6900
     14 C14       -11.8564    1.0111   54.2629 C.2     1  ZINC000672622940    0.5100
     15 O15       -11.9138    0.3384   53.2545 O.2     1  ZINC000672622940   -0.5100
     16 C16       -10.9742    2.2165   54.3078 C.2     1  ZINC000672622940    0.5100
     17 O17       -11.4637    3.3269   54.3105 O.2     1  ZINC000672622940   -0.5200
     18 N18        -9.6349    2.0704   54.3454 N.am    1  ZINC000672622940   -0.5800
     19 C19        -9.0272    0.7328   54.3365 C.3     1  ZINC000672622940    0.0700
     20 C20        -8.0049    0.6631   53.1977 C.3     1  ZINC000672622940   -0.1200
     21 C21        -7.0011    1.8084   53.3479 C.3     1  ZINC000672622940    0.0000
     22 C22        -5.9737    1.7230   52.2487 C.2     1  ZINC000672622940    0.2000
     23 N23        -6.0727    1.0267   51.1494 N.2     1  ZINC000672622940   -0.2800
     24 N24        -5.0134    1.1874   50.4386 N.2     1  ZINC000672622940   -0.2800
     25 C25        -4.1906    1.9953   51.0532 C.2     1  ZINC000672622940    0.1500
     26 C26        -2.8381    2.6624   50.9259 C.3     1  ZINC000672622940   -0.0400
     27 C27        -2.8737    3.7987   51.9732 C.3     1  ZINC000672622940   -0.1300
     28 C28        -3.9137    3.2657   52.9828 C.3     1  ZINC000672622940    0.1000
     29 N29        -4.7771    2.3601   52.2152 N.pl3   1  ZINC000672622940   -0.4900
     30 C30        -7.7355    3.1480   53.2565 C.3     1  ZINC000672622940   -0.1200
     31 C31        -8.7546    3.2459   54.3897 C.3     1  ZINC000672622940    0.1100
     32 C32       -13.6682   -1.0376   56.7193 C.3     1  ZINC000672622940   -0.1100
     33 H33       -16.3940   -2.7492   60.5394 H       1  ZINC000672622940    0.0600
     34 H34       -14.7039   -3.3055   60.5891 H       1  ZINC000672622940    0.0800
     35 H35       -15.1163   -1.6621   61.1345 H       1  ZINC000672622940    0.0700
     36 H36       -14.3976    0.0084   58.9077 H       1  ZINC000672622940    0.0600
     37 H37       -15.6702   -0.4032   57.7332 H       1  ZINC000672622940    0.0800
     38 H38       -16.0927   -0.1109   59.4374 H       1  ZINC000672622940    0.0700
     39 H39       -16.5616   -2.7768   56.0258 H       1  ZINC000672622940    0.0800
     40 H40       -16.3922   -1.1236   56.6637 H       1  ZINC000672622940    0.0700
     41 H41       -15.2298   -2.1440   54.0322 H       1  ZINC000672622940    0.0700
     42 H42       -16.6640   -1.1031   54.1991 H       1  ZINC000672622940    0.0700
     43 H43       -14.6468    0.2389   53.6712 H       1  ZINC000672622940    0.0700
     44 H44       -15.2740    0.6374   55.2887 H       1  ZINC000672622940    0.0700
     45 H45       -12.5433    1.2094   56.1479 H       1  ZINC000672622940    0.4100
     46 H46        -8.5271    0.5524   55.2881 H       1  ZINC000672622940    0.0700
     47 H47        -9.8008   -0.0189   54.1796 H       1  ZINC000672622940    0.1400
     48 H48        -7.4781   -0.2902   53.2395 H       1  ZINC000672622940    0.0800
     49 H49        -8.5194    0.7534   52.2410 H       1  ZINC000672622940    0.0800
     50 H50        -6.5049    1.7320   54.3154 H       1  ZINC000672622940    0.0900
     51 H51        -2.0411    1.9557   51.1571 H       1  ZINC000672622940    0.1000
     52 H52        -2.7076    3.0713   49.9239 H       1  ZINC000672622940    0.1000
     53 H53        -1.8997    3.9239   52.4461 H       1  ZINC000672622940    0.1100
     54 H54        -3.2102    4.7330   51.5235 H       1  ZINC000672622940    0.0900
     55 H55        -3.4150    2.7256   53.7877 H       1  ZINC000672622940    0.1000
     56 H56        -4.5017    4.0891   53.3883 H       1  ZINC000672622940    0.1000
     57 H57        -7.0170    3.9634   53.3401 H       1  ZINC000672622940    0.0800
     58 H58        -8.2525    3.2148   52.2992 H       1  ZINC000672622940    0.0800
     59 H59        -9.3475    4.1529   54.2706 H       1  ZINC000672622940    0.1000
     60 H60        -8.2348    3.2700   55.3475 H       1  ZINC000672622940    0.0800
     61 H61       -14.1412   -0.2644   57.3249 H       1  ZINC000672622940    0.0800
     62 H62       -12.7070   -1.3053   57.1580 H       1  ZINC000672622940    0.0800
@<TRIPOS>BOND
     1     1     2    1
     2     1    33    1
     3     1    34    1
     4     1    35    1
     5     2     3    1
     6     2     4   am
     7     3    36    1
     8     3    37    1
     9     3    38    1
    10     4     5    2
    11     4     6    1
    12     6     7    1
    13     6    32    1
    14     6     8    1
    15     8     9    1
    16     8    39    1
    17     8    40    1
    18     9    10    1
    19     9    41    1
    20     9    42    1
    21    10    11    1
    22    10    43    1
    23    10    44    1
    24    11    12    1
    25    11    13    1
    26    11    32    1
    27    13    14   am
    28    13    45    1
    29    14    15    2
    30    14    16    1
    31    16    17    2
    32    16    18   am
    33    18    31    1
    34    18    19    1
    35    19    20    1
    36    19    46    1
    37    19    47    1
    38    20    21    1
    39    20    48    1
    40    20    49    1
    41    21    22    1
    42    21    30    1
    43    21    50    1
    44    22    29    1
    45    22    23    2
    46    23    24    1
    47    24    25    2
    48    25    29    1
    49    25    26    1
    50    26    27    1
    51    26    51    1
    52    26    52    1
    53    27    28    1
    54    27    53    1
    55    27    54    1
    56    28    29    1
    57    28    55    1
    58    28    56    1
    59    30    31    1
    60    30    57    1
    61    30    58    1
    62    31    59    1
    63    31    60    1
    64    32    61    1
    65    32    62    1
@<TRIPOS>SUBSTRUCTURE
     1 ZINC000672622940        1 TEMP              0 ****  ****    0 ROOT


##########                                Name:    ZINC000951315041
##########                DOCK_Rotatable_Bonds:                   5
##########                         Heavy_Atoms:                  25
##########                    Molecular_Weight:             340.382
##########                DOCK_Rotatable_Bonds:                   5
##########                       Formal_Charge:          0.00999974
##########                     HBond_Acceptors:                   7
##########                        HBond_Donors:                   1
##########                         Heavy_Atoms:                  25
##########                          Grid_Score:          -29.130198
##########                     Grid_vdw_energy:          -27.903294
##########                      Grid_es_energy:           -1.226904
##########           Internal_energy_repulsive:           23.992533

@<TRIPOS>MOLECULE
ZINC000951315041
 45 47 1 0 0
SMALL
USER_CHARGES


@<TRIPOS>ATOM
      1 C1        -14.0302    0.0578   62.1123 C.3     1  ZINC000951315041    0.0500
      2 N2        -13.9499   -0.9327   61.0360 N.am    1  ZINC000951315041   -0.4900
      3 C3        -12.8908   -0.9238   60.2054 C.2     1  ZINC000951315041    0.1700
      4 C4        -12.7947   -1.8472   59.1844 C.2     1  ZINC000951315041   -0.2400
      5 C5        -11.6324   -1.8335   58.2771 C.2     1  ZINC000951315041    0.5800
      6 O6        -10.7215   -2.6216   58.4438 O.2     1  ZINC000951315041   -0.5200
      7 N7        -11.5797   -0.9474   57.2629 N.am    1  ZINC000951315041   -0.6000
      8 C8        -12.6725    0.0110   57.0486 C.3     1  ZINC000951315041    0.1100
      9 C9        -13.1567   -0.1091   55.6001 C.3     1  ZINC000951315041   -0.1300
     10 C10       -11.9682    0.0706   54.6527 C.3     1  ZINC000951315041   -0.1300
     11 C11       -10.9373   -1.0308   54.9103 C.3     1  ZINC000951315041    0.1300
     12 H12       -11.4016   -2.0057   54.7617 H       1  ZINC000951315041    0.1000
     13 N13        -9.8151   -0.8770   53.9812 N.am    1  ZINC000951315041   -0.7200
     14 C14        -9.0843    0.2554   53.9889 C.2     1  ZINC000951315041    0.5700
     15 O15        -9.3573    1.1496   54.7657 O.2     1  ZINC000951315041   -0.5200
     16 C16        -7.9507    0.4100   53.0526 C.ar    1  ZINC000951315041   -0.1900
     17 C17        -7.2436    1.6162   52.9839 C.ar    1  ZINC000951315041   -0.0100
     18 C18        -6.1903    1.7091   52.0910 C.ar    1  ZINC000951315041   -0.1800
     19 C19        -5.8728    0.6179   51.3028 C.ar    1  ZINC000951315041    0.1300
     20 N20        -6.5574   -0.5069   51.3888 N.ar    1  ZINC000951315041   -0.4900
     21 C21        -7.5636   -0.6461   52.2265 C.ar    1  ZINC000951315041    0.1400
     22 C22       -10.4255   -0.9174   56.3543 C.3     1  ZINC000951315041    0.1000
     23 C23       -13.8206   -2.8084   59.0152 C.2     1  ZINC000951315041    0.0100
     24 C24       -14.8807   -2.7983   59.8667 C.2     1  ZINC000951315041   -0.2300
     25 C25       -14.9332   -1.8403   60.8967 C.2     1  ZINC000951315041    0.5100
     26 O26       -15.8817   -1.8274   61.6633 O.2     1  ZINC000951315041   -0.5400
     27 H27       -14.9448   -0.1002   62.6840 H       1  ZINC000951315041    0.1100
     28 H28       -13.1676   -0.0496   62.7701 H       1  ZINC000951315041    0.0800
     29 H29       -14.0380    1.0600   61.6840 H       1  ZINC000951315041    0.0800
     30 H30       -12.1110   -0.1887   60.3387 H       1  ZINC000951315041    0.1700
     31 H31       -13.4943   -0.2139   57.7283 H       1  ZINC000951315041    0.1000
     32 H32       -12.3117    1.0233   57.2305 H       1  ZINC000951315041    0.0700
     33 H33       -13.6001   -1.0926   55.4451 H       1  ZINC000951315041    0.0700
     34 H34       -13.9010    0.6617   55.4002 H       1  ZINC000951315041    0.0900
     35 H35       -12.3142    0.0101   53.6208 H       1  ZINC000951315041    0.0800
     36 H36       -11.5100    1.0445   54.8254 H       1  ZINC000951315041    0.0700
     37 H37        -9.5980   -1.5901   53.3605 H       1  ZINC000951315041    0.4000
     38 H38        -7.5135    2.4529   53.6113 H       1  ZINC000951315041    0.1500
     39 H39        -5.6224    2.6242   52.0104 H       1  ZINC000951315041    0.1500
     40 H40        -5.0513    0.6877   50.6051 H       1  ZINC000951315041    0.1600
     41 H41        -8.0998   -1.5828   52.2681 H       1  ZINC000951315041    0.1600
     42 H42        -9.8815    0.0191   56.4768 H       1  ZINC000951315041    0.0700
     43 H43        -9.7662   -1.7569   56.5753 H       1  ZINC000951315041    0.0900
     44 H44       -13.7622   -3.5384   58.2214 H       1  ZINC000951315041    0.1400
     45 H45       -15.6747   -3.5220   59.7556 H       1  ZINC000951315041    0.1600
@<TRIPOS>BOND
     1     1     2    1
     2     1    27    1
     3     1    28    1
     4     1    29    1
     5     2    25   am
     6     2     3    1
     7     3     4    2
     8     3    30    1
     9     4     5    1
    10     4    23    1
    11     5     6    2
    12     5     7   am
    13     7    22    1
    14     7     8    1
    15     8     9    1
    16     8    31    1
    17     8    32    1
    18     9    10    1
    19     9    33    1
    20     9    34    1
    21    10    11    1
    22    10    35    1
    23    10    36    1
    24    11    12    1
    25    11    13    1
    26    11    22    1
    27    13    14   am
    28    13    37    1
    29    14    15    2
    30    14    16    1
    31    16    21   ar
    32    16    17   ar
    33    17    18   ar
    34    17    38    1
    35    18    19   ar
    36    18    39    1
    37    19    20   ar
    38    19    40    1
    39    20    21   ar
    40    21    41    1
    41    22    42    1
    42    22    43    1
    43    23    24    2
    44    23    44    1
    45    24    25    1
    46    24    45    1
    47    25    26    2
@<TRIPOS>SUBSTRUCTURE
     1 ZINC000951315041        1 TEMP              0 ****  ****    0 ROOT


##########                                Name:    ZINC000885154703
##########                DOCK_Rotatable_Bonds:                   5
##########                         Heavy_Atoms:                  24
##########                    Molecular_Weight:             396.259
##########                DOCK_Rotatable_Bonds:                   5
##########                       Formal_Charge:          -0.0099998
##########                     HBond_Acceptors:                   6
##########                        HBond_Donors:                   1
##########                         Heavy_Atoms:                  24
##########                          Grid_Score:          -29.126619
##########                     Grid_vdw_energy:          -28.538725
##########                      Grid_es_energy:           -0.587894
##########           Internal_energy_repulsive:            8.835525

@<TRIPOS>MOLECULE
ZINC000885154703
 43 45 1 0 0
SMALL
USER_CHARGES


@<TRIPOS>ATOM
      1 C1         -8.9994    5.5288   48.8444 C.3     1  ZINC000885154703   -0.1500
      2 C2         -8.8707    4.3307   49.7873 C.3     1  ZINC000885154703   -0.0300
      3 C3         -7.5170    4.3555   50.4491 C.2     1  ZINC000885154703    0.1700
      4 N4         -6.7899    5.4087   50.6738 N.2     1  ZINC000885154703   -0.3800
      5 O5         -5.7546    5.0949   51.2226 O.3     1  ZINC000885154703    0.0800
      6 C6         -5.7221    3.7715   51.4057 C.2     1  ZINC000885154703    0.1800
      7 C7         -4.6126    2.9819   52.0511 C.3     1  ZINC000885154703    0.0000
      8 H8         -5.0063    2.0517   52.4609 H       1  ZINC000885154703    0.1300
      9 C9         -3.9528    3.8146   53.1696 C.3     1  ZINC000885154703   -0.1200
     10 C10        -2.4494    3.4541   53.0750 C.3     1  ZINC000885154703   -0.1300
     11 C11        -2.2206    3.3402   51.5473 C.3     1  ZINC000885154703    0.1400
     12 H12        -2.0898    4.3285   51.1066 H       1  ZINC000885154703    0.1000
     13 N13        -1.0573    2.4960   51.2647 N.am    1  ZINC000885154703   -0.7100
     14 C14         0.1643    3.0516   51.1402 C.2     1  ZINC000885154703    0.5700
     15 O15         0.3006    4.2536   51.2612 O.2     1  ZINC000885154703   -0.5100
     16 C16         1.3375    2.2002   50.8570 C.ar    1  ZINC000885154703   -0.1600
     17 C17         2.3886    2.1243   51.7758 C.ar    1  ZINC000885154703    0.1500
     18 F18         2.3349    2.8299   52.9266 F       1  ZINC000885154703   -0.1200
     19 C19         3.4835    1.3242   51.5031 C.ar    1  ZINC000885154703   -0.1500
     20 C20         3.5391    0.6022   50.3261 C.ar    1  ZINC000885154703   -0.0400
     21 C21         2.5006    0.6734   49.4120 C.ar    1  ZINC000885154703   -0.1100
     22 Br22        2.5894   -0.3197   47.8052 Br      1  ZINC000885154703   -0.0300
     23 C23         1.3997    1.4625   49.6727 C.ar    1  ZINC000885154703    0.0100
     24 C24         0.2715    1.5375   48.6765 C.3     1  ZINC000885154703   -0.1300
     25 C25        -3.5119    2.6792   51.0193 C.3     1  ZINC000885154703   -0.1300
     26 N26        -6.8422    3.2920   50.9210 N.2     1  ZINC000885154703   -0.4800
     27 H27        -8.8900    6.4522   49.4132 H       1  ZINC000885154703    0.0600
     28 H28        -8.2216    5.4768   48.0827 H       1  ZINC000885154703    0.0600
     29 H29        -9.9785    5.5108   48.3657 H       1  ZINC000885154703    0.0700
     30 H30        -9.6486    4.3826   50.5490 H       1  ZINC000885154703    0.1000
     31 H31        -8.9802    3.4073   49.2185 H       1  ZINC000885154703    0.0900
     32 H32        -4.1017    4.8795   52.9908 H       1  ZINC000885154703    0.0800
     33 H33        -4.3527    3.5307   54.1430 H       1  ZINC000885154703    0.0900
     34 H34        -1.8344    4.2474   53.4997 H       1  ZINC000885154703    0.0800
     35 H35        -2.2486    2.5027   53.5676 H       1  ZINC000885154703    0.0800
     36 H36        -1.1662    1.5371   51.1669 H       1  ZINC000885154703    0.4000
     37 H37         4.2968    1.2639   52.2113 H       1  ZINC000885154703    0.1500
     38 H38         4.3966   -0.0205   50.1178 H       1  ZINC000885154703    0.1500
     39 H39        -0.4608    0.7609   48.8978 H       1  ZINC000885154703    0.0900
     40 H40        -0.2055    2.5155   48.7407 H       1  ZINC000885154703    0.0800
     41 H41         0.6646    1.3901   47.6707 H       1  ZINC000885154703    0.0900
     42 H42        -3.3698    1.6023   50.9285 H       1  ZINC000885154703    0.0900
     43 H43        -3.7800    3.1038   50.0520 H       1  ZINC000885154703    0.0800
@<TRIPOS>BOND
     1     1     2    1
     2     1    27    1
     3     1    28    1
     4     1    29    1
     5     2     3    1
     6     2    30    1
     7     2    31    1
     8     3    26    1
     9     3     4    2
    10     4     5    1
    11     5     6    1
    12     6     7    1
    13     6    26    2
    14     7     8    1
    15     7    25    1
    16     7     9    1
    17     9    10    1
    18     9    32    1
    19     9    33    1
    20    10    11    1
    21    10    34    1
    22    10    35    1
    23    11    12    1
    24    11    13    1
    25    11    25    1
    26    13    14   am
    27    13    36    1
    28    14    15    2
    29    14    16    1
    30    16    23   ar
    31    16    17   ar
    32    17    18    1
    33    17    19   ar
    34    19    20   ar
    35    19    37    1
    36    20    21   ar
    37    20    38    1
    38    21    22    1
    39    21    23   ar
    40    23    24    1
    41    24    39    1
    42    24    40    1
    43    24    41    1
    44    25    42    1
    45    25    43    1
@<TRIPOS>SUBSTRUCTURE
     1 ZINC000885154703        1 TEMP              0 ****  ****    0 ROOT


##########                                Name:    ZINC000867639366
##########                DOCK_Rotatable_Bonds:                   6
##########                         Heavy_Atoms:                  25
##########                    Molecular_Weight:             388.509
##########                DOCK_Rotatable_Bonds:                   6
##########                       Formal_Charge:          0.00999961
##########                     HBond_Acceptors:                   9
##########                        HBond_Donors:                   1
##########                         Heavy_Atoms:                  25
##########                          Grid_Score:          -29.125975
##########                     Grid_vdw_energy:          -25.682350
##########                      Grid_es_energy:           -3.443624
##########           Internal_energy_repulsive:           39.346554

@<TRIPOS>MOLECULE
ZINC000867639366
 49 51 1 0 0
SMALL
USER_CHARGES


@<TRIPOS>ATOM
      1 C1        -10.6354    2.6198   55.5344 C.3     1  ZINC000867639366    0.0300
      2 O2        -10.1016    2.1914   56.7888 O.3     1  ZINC000867639366   -0.3800
      3 C3         -9.1909    3.1203   57.3805 C.3     1  ZINC000867639366    0.0800
      4 H4         -9.3222    4.1005   56.9222 H       1  ZINC000867639366    0.0800
      5 C5         -7.7549    2.6403   57.1575 C.3     1  ZINC000867639366   -0.1400
      6 C6         -7.5790    1.2495   57.7712 C.3     1  ZINC000867639366   -0.1200
      7 C7         -7.8346    1.3253   59.2798 C.3     1  ZINC000867639366    0.1500
      8 H8         -7.0701    1.9443   59.7492 H       1  ZINC000867639366    0.0800
      9 C9         -7.7938   -0.0822   59.8783 C.3     1  ZINC000867639366   -0.1900
     10 N10        -9.1583    1.9216   59.5056 N.am    1  ZINC000867639366   -0.9800
     11 S11       -10.2832    1.1481   60.4430 S.o2    1  ZINC000867639366    2.6900
     12 O12       -11.3755    2.0464   60.5824 O.2     1  ZINC000867639366   -0.9500
     13 O13       -10.4177   -0.1620   59.9095 O.2     1  ZINC000867639366   -0.9400
     14 C14        -9.5842    0.9617   62.0496 C.ar    1  ZINC000867639366   -0.6300
     15 C15        -9.7967   -0.2020   62.7650 C.ar    1  ZINC000867639366   -0.0500
     16 C16        -9.2482   -0.3482   64.0255 C.ar    1  ZINC000867639366   -0.0400
     17 C17        -8.4870    0.6689   64.5704 C.ar    1  ZINC000867639366   -0.6300
     18 S18        -7.7885    0.4827   66.1772 S.o2    1  ZINC000867639366    2.7000
     19 O19        -7.9852   -0.8755   66.5454 O.2     1  ZINC000867639366   -0.9400
     20 O20        -6.5084    1.0982   66.1320 O.2     1  ZINC000867639366   -0.9500
     21 N21        -8.7056    1.3870   67.2182 N.am    1  ZINC000867639366   -1.0800
     22 C22       -10.1325    1.0969   67.3783 C.3     1  ZINC000867639366    0.0800
     23 C23       -11.0233    2.2135   67.9265 C.3     1  ZINC000867639366   -0.1800
     24 C24       -11.1093    1.8217   66.4500 C.3     1  ZINC000867639366   -0.1900
     25 C25        -8.2734    1.8319   63.8544 C.ar    1  ZINC000867639366   -0.0400
     26 C26        -8.8186    1.9767   62.5923 C.ar    1  ZINC000867639366   -0.0400
     27 C27        -9.4653    3.2179   58.8844 C.3     1  ZINC000867639366    0.1200
     28 H28       -11.1749    3.5570   55.6702 H       1  ZINC000867639366    0.0400
     29 H29        -9.8215    2.7685   54.8248 H       1  ZINC000867639366    0.0400
     30 H30       -11.3171    1.8603   55.1513 H       1  ZINC000867639366    0.0900
     31 H31        -7.5495    2.5940   56.0880 H       1  ZINC000867639366    0.0700
     32 H32        -7.0619    3.3362   57.6303 H       1  ZINC000867639366    0.0700
     33 H33        -8.2888    0.5586   57.3162 H       1  ZINC000867639366    0.0800
     34 H34        -6.5628    0.8984   57.5916 H       1  ZINC000867639366    0.0800
     35 H35        -6.7769   -0.4709   59.8238 H       1  ZINC000867639366    0.0700
     36 H36        -8.1127   -0.0434   60.9199 H       1  ZINC000867639366    0.0600
     37 H37        -8.4628   -0.7350   59.3176 H       1  ZINC000867639366    0.1000
     38 H38       -10.3915   -0.9966   62.3394 H       1  ZINC000867639366    0.1600
     39 H39        -9.4149   -1.2570   64.5848 H       1  ZINC000867639366    0.1500
     40 H40        -8.2979    2.1088   67.7219 H       1  ZINC000867639366    0.4200
     41 H41       -10.3751    0.0732   67.6636 H       1  ZINC000867639366    0.1400
     42 H42       -11.8520    1.9246   68.5730 H       1  ZINC000867639366    0.1100
     43 H43       -10.5475    3.1640   68.1681 H       1  ZINC000867639366    0.1000
     44 H44       -10.6901    2.5145   65.7203 H       1  ZINC000867639366    0.1000
     45 H45       -11.9945    1.2751   66.1251 H       1  ZINC000867639366    0.1000
     46 H46        -7.6784    2.6264   64.2799 H       1  ZINC000867639366    0.1500
     47 H47        -8.6518    2.8853   62.0329 H       1  ZINC000867639366    0.1500
     48 H48        -8.8338    3.9913   59.3217 H       1  ZINC000867639366    0.0900
     49 H49       -10.5144    3.4631   59.0498 H       1  ZINC000867639366    0.1000
@<TRIPOS>BOND
     1     1     2    1
     2     1    28    1
     3     1    29    1
     4     1    30    1
     5     2     3    1
     6     3     4    1
     7     3    27    1
     8     3     5    1
     9     5     6    1
    10     5    31    1
    11     5    32    1
    12     6     7    1
    13     6    33    1
    14     6    34    1
    15     7     8    1
    16     7     9    1
    17     7    10    1
    18     9    35    1
    19     9    36    1
    20     9    37    1
    21    10    11   am
    22    10    27    1
    23    11    12    2
    24    11    13    2
    25    11    14    1
    26    14    26   ar
    27    14    15   ar
    28    15    16   ar
    29    15    38    1
    30    16    17   ar
    31    16    39    1
    32    17    18    1
    33    17    25   ar
    34    18    19    2
    35    18    20    2
    36    18    21   am
    37    21    22    1
    38    21    40    1
    39    22    24    1
    40    22    23    1
    41    22    41    1
    42    23    24    1
    43    23    42    1
    44    23    43    1
    45    24    44    1
    46    24    45    1
    47    25    26   ar
    48    25    46    1
    49    26    47    1
    50    27    48    1
    51    27    49    1
@<TRIPOS>SUBSTRUCTURE
     1 ZINC000867639366        1 TEMP              0 ****  ****    0 ROOT


##########                                Name:    ZINC000191003171
##########                DOCK_Rotatable_Bonds:                   6
##########                         Heavy_Atoms:                  26
##########                    Molecular_Weight:             389.414
##########                DOCK_Rotatable_Bonds:                   6
##########                       Formal_Charge:          -0.0200002
##########                     HBond_Acceptors:                   8
##########                        HBond_Donors:                   1
##########                         Heavy_Atoms:                  26
##########                          Grid_Score:          -29.117554
##########                     Grid_vdw_energy:          -29.530138
##########                      Grid_es_energy:            0.412585
##########           Internal_energy_repulsive:           16.219006

@<TRIPOS>MOLECULE
ZINC000191003171
 45 46 1 0 0
SMALL
USER_CHARGES


@<TRIPOS>ATOM
      1 C1          2.9812    2.1557   56.5489 C.3     1  ZINC000191003171   -0.1200
      2 C2          1.7023    2.1993   57.3450 C.ar    1  ZINC000191003171   -0.0800
      3 C3          1.6732    1.7010   58.6337 C.ar    1  ZINC000191003171   -0.0700
      4 C4          0.4998    1.7411   59.3641 C.ar    1  ZINC000191003171   -0.1800
      5 C5          0.4680    1.1974   60.7692 C.3     1  ZINC000191003171    0.5100
      6 F6          1.7075    1.4132   61.3809 F       1  ZINC000191003171   -0.1800
      7 F7         -0.5319    1.8493   61.4988 F       1  ZINC000191003171   -0.1800
      8 F8          0.1987   -0.1750   60.7322 F       1  ZINC000191003171   -0.1800
      9 C9         -0.6437    2.2802   58.8055 C.ar    1  ZINC000191003171   -0.0800
     10 C10        -0.6145    2.7790   57.5164 C.ar    1  ZINC000191003171   -0.1000
     11 C11         0.5596    2.7429   56.7879 C.ar    1  ZINC000191003171   -0.0500
     12 C12         0.5914    3.2866   55.3828 C.3     1  ZINC000191003171    0.0900
     13 N13        -0.7825    3.5027   54.9100 N.3     1  ZINC000191003171   -0.6800
     14 C14        -0.7972    3.8856   53.4919 C.3     1  ZINC000191003171    0.1200
     15 H15         0.0741    3.4624   52.9922 H       1  ZINC000191003171    0.0600
     16 C16        -0.7613    5.4108   53.3751 C.3     1  ZINC000191003171   -0.1400
     17 C17        -2.0523    3.3616   52.8430 C.ar    1  ZINC000191003171   -0.0100
     18 C18        -1.9703    2.6172   51.6812 C.ar    1  ZINC000191003171   -0.1300
     19 C19        -3.1210    2.1357   51.0848 C.ar    1  ZINC000191003171    0.0100
     20 C20        -4.3545    2.3982   51.6496 C.ar    1  ZINC000191003171   -0.7000
     21 S21        -5.8206    1.7844   50.8891 S.o2    1  ZINC000191003171    2.5000
     22 C22        -6.6126    0.7816   52.1767 C.3     1  ZINC000191003171   -0.6500
     23 O23        -6.5897    2.9486   50.6203 O.2     1  ZINC000191003171   -0.9300
     24 O24        -5.3486    0.9584   49.8337 O.2     1  ZINC000191003171   -0.9300
     25 C25        -4.4378    3.1434   52.8138 C.ar    1  ZINC000191003171    0.1900
     26 F26        -5.6432    3.4007   53.3670 F       1  ZINC000191003171   -0.1200
     27 C27        -3.2846    3.6206   53.4130 C.ar    1  ZINC000191003171   -0.1700
     28 H28         3.5498    3.0689   56.7245 H       1  ZINC000191003171    0.0800
     29 H29         3.5728    1.2942   56.8587 H       1  ZINC000191003171    0.0800
     30 H30         2.7461    2.0724   55.4878 H       1  ZINC000191003171    0.0600
     31 H31         2.5669    1.2802   59.0703 H       1  ZINC000191003171    0.1400
     32 H32        -1.5602    2.3114   59.3759 H       1  ZINC000191003171    0.1400
     33 H33        -1.5081    3.1999   57.0799 H       1  ZINC000191003171    0.1400
     34 H34         1.1327    4.2326   55.3714 H       1  ZINC000191003171    0.0900
     35 H35         1.0928    2.5733   54.7285 H       1  ZINC000191003171    0.0500
     36 H36        -1.3526    2.6856   55.0699 H       1  ZINC000191003171    0.3500
     37 H37        -0.7722    5.6950   52.3229 H       1  ZINC000191003171    0.0600
     38 H38        -1.6327    5.8340   53.8748 H       1  ZINC000191003171    0.0700
     39 H39         0.1465    5.7898   53.8445 H       1  ZINC000191003171    0.0600
     40 H40        -1.0068    2.4118   51.2388 H       1  ZINC000191003171    0.1500
     41 H41        -3.0558    1.5545   50.1768 H       1  ZINC000191003171    0.1600
     42 H42        -6.8340    1.4084   53.0406 H       1  ZINC000191003171    0.1300
     43 H43        -7.5387    0.3575   51.7888 H       1  ZINC000191003171    0.1400
     44 H44        -5.9410   -0.0236   52.4746 H       1  ZINC000191003171    0.1300
     45 H45        -3.3484    4.2015   54.3212 H       1  ZINC000191003171    0.1500
@<TRIPOS>BOND
     1     1     2    1
     2     1    28    1
     3     1    29    1
     4     1    30    1
     5     2    11   ar
     6     2     3   ar
     7     3     4   ar
     8     3    31    1
     9     4     5    1
    10     4     9   ar
    11     5     6    1
    12     5     7    1
    13     5     8    1
    14     9    10   ar
    15     9    32    1
    16    10    11   ar
    17    10    33    1
    18    11    12    1
    19    12    13    1
    20    12    34    1
    21    12    35    1
    22    13    14    1
    23    13    36    1
    24    14    15    1
    25    14    16    1
    26    14    17    1
    27    16    37    1
    28    16    38    1
    29    16    39    1
    30    17    27   ar
    31    17    18   ar
    32    18    19   ar
    33    18    40    1
    34    19    20   ar
    35    19    41    1
    36    20    21    1
    37    20    25   ar
    38    21    22    1
    39    21    23    2
    40    21    24    2
    41    22    42    1
    42    22    43    1
    43    22    44    1
    44    25    26    1
    45    25    27   ar
    46    27    45    1
@<TRIPOS>SUBSTRUCTURE
     1 ZINC000191003171        1 TEMP              0 ****  ****    0 ROOT


##########                                Name:    ZINC000898967786
##########                DOCK_Rotatable_Bonds:                   5
##########                         Heavy_Atoms:                  25
##########                    Molecular_Weight:             356.448
##########                DOCK_Rotatable_Bonds:                   5
##########                       Formal_Charge:        -2.38419e-07
##########                     HBond_Acceptors:                   7
##########                        HBond_Donors:                   1
##########                         Heavy_Atoms:                  25
##########                          Grid_Score:          -29.090979
##########                     Grid_vdw_energy:          -29.682896
##########                      Grid_es_energy:            0.591917
##########           Internal_energy_repulsive:           10.723160

@<TRIPOS>MOLECULE
ZINC000898967786
 45 48 1 0 0
SMALL
USER_CHARGES


@<TRIPOS>ATOM
      1 C1        -10.2842    0.0887   53.8246 C.3     1  ZINC000898967786   -0.0800
      2 C2         -8.9354    0.5979   53.3859 C.2     1  ZINC000898967786    0.0900
      3 C3         -8.3126    1.6959   53.8678 C.2     1  ZINC000898967786   -0.1000
      4 C4         -8.8354    2.6260   54.9319 C.3     1  ZINC000898967786    0.2200
      5 N5         -9.2311    1.8484   56.1088 N.am    1  ZINC000898967786   -0.7400
      6 C6         -8.3569    1.6605   57.1174 C.2     1  ZINC000898967786    0.7100
      7 O7         -7.2401    2.1364   57.0505 O.2     1  ZINC000898967786   -0.5800
      8 N8         -8.7210    0.9452   58.2001 N.am    1  ZINC000898967786   -0.6300
      9 C9         -7.7841    0.7267   59.3135 C.3     1  ZINC000898967786    0.0900
     10 C10        -7.7515   -0.7727   59.6309 C.3     1  ZINC000898967786    0.0500
     11 O11        -9.0880   -1.2421   59.8243 O.3     1  ZINC000898967786   -0.3700
     12 C12        -9.9233   -1.1216   58.6704 C.3     1  ZINC000898967786    0.1400
     13 H13        -9.4728   -1.6607   57.8370 H       1  ZINC000898967786    0.0700
     14 C14       -11.2817   -1.7013   58.9695 C.2     1  ZINC000898967786   -0.1100
     15 C15       -11.8186   -1.6780   60.1904 C.2     1  ZINC000898967786   -0.1800
     16 S16       -13.4023   -2.4424   60.1530 S.3     1  ZINC000898967786    0.1100
     17 C17       -13.2414   -2.7599   58.4305 C.2     1  ZINC000898967786   -0.2100
     18 C18       -12.0694   -2.2930   57.9971 C.2     1  ZINC000898967786   -0.1300
     19 C19       -10.0690    0.3647   58.3064 C.3     1  ZINC000898967786    0.0900
     20 N20        -7.1182    1.8048   53.2092 N.pl3   1  ZINC000898967786   -0.3500
     21 C21        -6.0987    2.7087   53.2893 C.2     1  ZINC000898967786    0.0600
     22 C22        -5.0059    2.5830   52.5076 C.2     1  ZINC000898967786   -0.1400
     23 C23        -4.9037    1.5172   51.5983 C.2     1  ZINC000898967786   -0.1000
     24 C24        -5.9125    0.6092   51.5082 C.2     1  ZINC000898967786   -0.0800
     25 C25        -7.0471    0.7539   52.3318 C.2     1  ZINC000898967786    0.2400
     26 N26        -8.1540    0.0362   52.4605 N.2     1  ZINC000898967786   -0.4900
     27 H27       -10.1580   -0.6039   54.6567 H       1  ZINC000898967786    0.0800
     28 H28       -10.9040    0.9276   54.1408 H       1  ZINC000898967786    0.0700
     29 H29       -10.7661   -0.4261   52.9933 H       1  ZINC000898967786    0.0800
     30 H30        -8.0555    3.3349   55.2102 H       1  ZINC000898967786    0.1000
     31 H31        -9.6993    3.1686   54.5478 H       1  ZINC000898967786    0.0700
     32 H32       -10.1221    1.4688   56.1621 H       1  ZINC000898967786    0.4000
     33 H33        -6.7878    1.0629   59.0264 H       1  ZINC000898967786    0.1100
     34 H34        -8.1204    1.2803   60.1903 H       1  ZINC000898967786    0.0800
     35 H35        -7.2932   -1.3106   58.8010 H       1  ZINC000898967786    0.0600
     36 H36        -7.1719   -0.9402   60.5387 H       1  ZINC000898967786    0.1100
     37 H37       -11.3522   -1.2550   61.0678 H       1  ZINC000898967786    0.1700
     38 H38       -13.9805   -3.2530   57.8166 H       1  ZINC000898967786    0.1700
     39 H39       -11.7553   -2.3776   56.9674 H       1  ZINC000898967786    0.1400
     40 H40       -10.6359    0.8789   59.0825 H       1  ZINC000898967786    0.0800
     41 H41       -10.5843    0.4598   57.3506 H       1  ZINC000898967786    0.0900
     42 H42        -6.1674    3.5322   53.9846 H       1  ZINC000898967786    0.1600
     43 H43        -4.2064    3.3054   52.5811 H       1  ZINC000898967786    0.1500
     44 H44        -4.0284    1.4194   50.9732 H       1  ZINC000898967786    0.1500
     45 H45        -5.8450   -0.2140   50.8125 H       1  ZINC000898967786    0.1500
@<TRIPOS>BOND
     1     1     2    1
     2     1    27    1
     3     1    28    1
     4     1    29    1
     5     2    26    1
     6     2     3    2
     7     3     4    1
     8     3    20    1
     9     4     5    1
    10     4    30    1
    11     4    31    1
    12     5     6   am
    13     5    32    1
    14     6     7    2
    15     6     8   am
    16     8    19    1
    17     8     9    1
    18     9    10    1
    19     9    33    1
    20     9    34    1
    21    10    11    1
    22    10    35    1
    23    10    36    1
    24    11    12    1
    25    12    13    1
    26    12    14    1
    27    12    19    1
    28    14    18    1
    29    14    15    2
    30    15    16    1
    31    15    37    1
    32    16    17    1
    33    17    18    2
    34    17    38    1
    35    18    39    1
    36    19    40    1
    37    19    41    1
    38    20    25    1
    39    20    21    1
    40    21    22    2
    41    21    42    1
    42    22    23    1
    43    22    43    1
    44    23    24    2
    45    23    44    1
    46    24    25    1
    47    24    45    1
    48    25    26    2
@<TRIPOS>SUBSTRUCTURE
     1 ZINC000898967786        1 TEMP              0 ****  ****    0 ROOT


##########                                Name:    ZINC000507831344
##########                DOCK_Rotatable_Bonds:                   6
##########                         Heavy_Atoms:                  31
##########                    Molecular_Weight:              422.53
##########                DOCK_Rotatable_Bonds:                   6
##########                       Formal_Charge:          -0.0200002
##########                     HBond_Acceptors:                   8
##########                        HBond_Donors:                   2
##########                         Heavy_Atoms:                  31
##########                          Grid_Score:          -29.082890
##########                     Grid_vdw_energy:          -28.439428
##########                      Grid_es_energy:           -0.643461
##########           Internal_energy_repulsive:           20.815264

@<TRIPOS>MOLECULE
ZINC000507831344
 61 64 1 0 0
SMALL
USER_CHARGES


@<TRIPOS>ATOM
      1 C1        -13.9139    2.5922   53.9105 C.3     1  ZINC000507831344   -0.1000
      2 C2        -12.8988    1.5458   54.2925 C.ar    1  ZINC000507831344   -0.0800
      3 C3        -11.5512    1.8539   54.3167 C.ar    1  ZINC000507831344   -0.0800
      4 C4        -10.6479    0.8548   54.6764 C.ar    1  ZINC000507831344    0.0900
      5 N5         -9.2724    1.1223   54.7150 N.am    1  ZINC000507831344   -0.6700
      6 C6         -8.5529    1.1189   53.5754 C.2     1  ZINC000507831344    0.5100
      7 O7         -9.0956    0.8843   52.5163 O.2     1  ZINC000507831344   -0.5100
      8 C8         -7.0742    1.4065   53.6170 C.3     1  ZINC000507831344   -0.1400
      9 C9         -6.8028    2.7743   52.9875 C.3     1  ZINC000507831344   -0.0500
     10 C10        -5.3349    2.8986   52.6695 C.2     1  ZINC000507831344   -0.2200
     11 C11        -4.8477    2.4369   51.4876 C.2     1  ZINC000507831344    0.2100
     12 C12        -5.7685    1.7956   50.4817 C.3     1  ZINC000507831344   -0.1400
     13 N13        -3.5197    2.5609   51.2237 N.pl3   1  ZINC000507831344   -0.3000
     14 N14        -2.7426    2.1893   50.1200 N.am    1  ZINC000507831344   -0.5100
     15 C15        -1.4646    2.5396   50.3607 C.2     1  ZINC000507831344    0.5500
     16 O16        -0.5214    2.3625   49.6069 O.2     1  ZINC000507831344   -0.5400
     17 C17        -1.4029    3.1391   51.6177 C.2     1  ZINC000507831344   -0.3500
     18 C18        -2.6914    3.1472   52.1475 C.2     1  ZINC000507831344    0.3500
     19 N19        -3.1804    3.5992   53.3082 N.2     1  ZINC000507831344   -0.4800
     20 C20        -4.4622    3.4957   53.5859 C.2     1  ZINC000507831344    0.2500
     21 C21        -4.9904    4.0124   54.8993 C.3     1  ZINC000507831344   -0.1200
     22 C22       -11.1266   -0.4064   54.9959 C.ar    1  ZINC000507831344    0.0800
     23 N23       -12.4200   -0.6658   54.9623 N.ar    1  ZINC000507831344   -0.4900
     24 C24       -13.3064    0.2594   54.6306 C.ar    1  ZINC000507831344    0.2800
     25 N25       -14.6610   -0.0612   54.6096 N.3     1  ZINC000507831344   -0.4800
     26 C26       -14.9647   -0.9913   53.5146 C.3     1  ZINC000507831344    0.0600
     27 C27       -16.4776   -1.2067   53.4314 C.3     1  ZINC000507831344   -0.1200
     28 C28       -16.9814   -1.7733   54.7618 C.3     1  ZINC000507831344   -0.1200
     29 C29       -16.6098   -0.8089   55.8916 C.3     1  ZINC000507831344   -0.1100
     30 C30       -15.0932   -0.6050   55.9034 C.3     1  ZINC000507831344    0.0900
     31 H31       -14.5996   -1.5608   56.0788 H       1  ZINC000507831344    0.0600
     32 C32       -14.7192    0.3740   57.0182 C.3     1  ZINC000507831344   -0.1400
     33 H33       -14.3025    3.0672   54.8113 H       1  ZINC000507831344    0.0700
     34 H34       -13.4408    3.3437   53.2786 H       1  ZINC000507831344    0.0600
     35 H35       -14.7326    2.1222   53.3655 H       1  ZINC000507831344    0.0800
     36 H36       -11.2064    2.8452   54.0625 H       1  ZINC000507831344    0.1500
     37 H37        -8.8384    1.3098   55.5620 H       1  ZINC000507831344    0.4100
     38 H38        -6.7335    1.4089   54.6523 H       1  ZINC000507831344    0.1000
     39 H39        -6.5387    0.6376   53.0601 H       1  ZINC000507831344    0.1000
     40 H40        -7.3829    2.8737   52.0700 H       1  ZINC000507831344    0.0900
     41 H41        -7.0909    3.5596   53.6864 H       1  ZINC000507831344    0.1000
     42 H42        -6.1612    2.5590   49.8102 H       1  ZINC000507831344    0.1000
     43 H43        -5.2162    1.0535   49.9050 H       1  ZINC000507831344    0.0800
     44 H44        -6.5940    1.3102   51.0024 H       1  ZINC000507831344    0.1100
     45 H45        -3.0693    1.7528   49.3178 H       1  ZINC000507831344    0.4400
     46 H46        -0.5155    3.5273   52.0953 H       1  ZINC000507831344    0.1700
     47 H47        -4.1697    4.4327   55.4809 H       1  ZINC000507831344    0.0900
     48 H48        -5.7363    4.7849   54.7125 H       1  ZINC000507831344    0.1000
     49 H49        -5.4470    3.1931   55.4548 H       1  ZINC000507831344    0.0900
     50 H50       -10.4330   -1.1856   55.2752 H       1  ZINC000507831344    0.1600
     51 H51       -14.6050   -0.5746   52.5739 H       1  ZINC000507831344    0.0700
     52 H52       -14.4717   -1.9453   53.7011 H       1  ZINC000507831344    0.0500
     53 H53       -16.9702   -0.2553   53.2311 H       1  ZINC000507831344    0.0700
     54 H54       -16.7015   -1.9092   52.6286 H       1  ZINC000507831344    0.0700
     55 H55       -18.0646   -1.8877   54.7220 H       1  ZINC000507831344    0.0700
     56 H56       -16.5182   -2.7430   54.9435 H       1  ZINC000507831344    0.0600
     57 H57       -17.1046    0.1488   55.7301 H       1  ZINC000507831344    0.0700
     58 H58       -16.9283   -1.2271   56.8465 H       1  ZINC000507831344    0.0700
     59 H59       -14.9599   -0.0674   57.9853 H       1  ZINC000507831344    0.0600
     60 H60       -13.6512    0.5869   56.9716 H       1  ZINC000507831344    0.0500
     61 H61       -15.2800    1.3001   56.8917 H       1  ZINC000507831344    0.0600
@<TRIPOS>BOND
     1     1     2    1
     2     1    33    1
     3     1    34    1
     4     1    35    1
     5     2    24   ar
     6     2     3   ar
     7     3     4   ar
     8     3    36    1
     9     4     5    1
    10     4    22   ar
    11     5     6   am
    12     5    37    1
    13     6     7    2
    14     6     8    1
    15     8     9    1
    16     8    38    1
    17     8    39    1
    18     9    10    1
    19     9    40    1
    20     9    41    1
    21    10    20    1
    22    10    11    2
    23    11    12    1
    24    11    13    1
    25    12    42    1
    26    12    43    1
    27    12    44    1
    28    13    18    1
    29    13    14    1
    30    14    15   am
    31    14    45    1
    32    15    16    2
    33    15    17    1
    34    17    18    2
    35    17    46    1
    36    18    19    1
    37    19    20    2
    38    20    21    1
    39    21    47    1
    40    21    48    1
    41    21    49    1
    42    22    23   ar
    43    22    50    1
    44    23    24   ar
    45    24    25    1
    46    25    30    1
    47    25    26    1
    48    26    27    1
    49    26    51    1
    50    26    52    1
    51    27    28    1
    52    27    53    1
    53    27    54    1
    54    28    29    1
    55    28    55    1
    56    28    56    1
    57    29    30    1
    58    29    57    1
    59    29    58    1
    60    30    31    1
    61    30    32    1
    62    32    59    1
    63    32    60    1
    64    32    61    1
@<TRIPOS>SUBSTRUCTURE
     1 ZINC000507831344        1 TEMP              0 ****  ****    0 ROOT


##########                                Name:    ZINC000680410869
##########                DOCK_Rotatable_Bonds:                   6
##########                         Heavy_Atoms:                  24
##########                    Molecular_Weight:             335.354
##########                DOCK_Rotatable_Bonds:                   6
##########                       Formal_Charge:        -1.04308e-07
##########                     HBond_Acceptors:                   7
##########                        HBond_Donors:                   0
##########                         Heavy_Atoms:                  24
##########                          Grid_Score:          -29.047741
##########                     Grid_vdw_energy:          -28.336998
##########                      Grid_es_energy:           -0.710742
##########           Internal_energy_repulsive:           12.354285

@<TRIPOS>MOLECULE
ZINC000680410869
 43 45 1 0 0
SMALL
USER_CHARGES


@<TRIPOS>ATOM
      1 O1         -5.8142    3.5137   56.7752 O.2     1  ZINC000680410869   -0.5200
      2 C2         -6.8639    2.9124   56.6550 C.2     1  ZINC000680410869    0.6100
      3 C3         -7.4895    2.2760   57.8320 C.2     1  ZINC000680410869    0.0100
      4 N4         -7.2785    1.0491   58.2653 N.2     1  ZINC000680410869   -0.2500
      5 N5         -7.9863    0.8239   59.3134 N.pl3   1  ZINC000680410869   -0.3500
      6 C6         -8.0005   -0.4367   60.0598 C.3     1  ZINC000680410869    0.5000
      7 F7         -8.7098   -0.2641   61.2532 F       1  ZINC000680410869   -0.1600
      8 F8         -8.6179   -1.4278   59.2894 F       1  ZINC000680410869   -0.1700
      9 C9         -8.7148    1.9162   59.6286 C.2     1  ZINC000680410869    0.0100
     10 C10        -8.4249    2.8695   58.7125 C.2     1  ZINC000680410869   -0.1700
     11 N11        -7.4596    2.8310   55.4487 N.am    1  ZINC000680410869   -0.6000
     12 C12        -8.7333    2.1138   55.2796 C.3     1  ZINC000680410869    0.0800
     13 C13        -8.5857    1.1358   54.1085 C.3     1  ZINC000680410869    0.0500
     14 O14        -8.0977    1.8412   52.9648 O.3     1  ZINC000680410869   -0.3700
     15 C15        -6.7996    2.4138   53.1403 C.3     1  ZINC000680410869    0.0800
     16 H16        -6.0892    1.6309   53.4066 H       1  ZINC000680410869    0.0600
     17 C17        -6.3566    3.0845   51.8385 C.3     1  ZINC000680410869   -0.1000
     18 C18        -5.5839    2.0781   50.9835 C.3     1  ZINC000680410869   -0.0800
     19 C19        -4.1094    2.3797   51.0621 C.ar    1  ZINC000680410869   -0.0800
     20 C20        -3.5520    2.7966   52.2564 C.ar    1  ZINC000680410869   -0.1200
     21 C21        -2.1996    3.0733   52.3284 C.ar    1  ZINC000680410869   -0.1200
     22 C22        -1.4044    2.9327   51.2064 C.ar    1  ZINC000680410869   -0.1300
     23 C23        -1.9618    2.5150   50.0124 C.ar    1  ZINC000680410869   -0.1200
     24 C24        -3.3134    2.2341   49.9413 C.ar    1  ZINC000680410869   -0.1200
     25 C25        -6.8585    3.4621   54.2631 C.3     1  ZINC000680410869    0.0600
     26 H26        -6.9772   -0.7368   60.2855 H       1  ZINC000680410869    0.1700
     27 H27        -9.3981    2.0128   60.4594 H       1  ZINC000680410869    0.1900
     28 H28        -8.8272    3.8705   58.6608 H       1  ZINC000680410869    0.1700
     29 H29        -8.9682    1.5631   56.1905 H       1  ZINC000680410869    0.1000
     30 H30        -9.5300    2.8261   55.0650 H       1  ZINC000680410869    0.0800
     31 H31        -7.8820    0.3484   54.3783 H       1  ZINC000680410869    0.0600
     32 H32        -9.5556    0.6950   53.8778 H       1  ZINC000680410869    0.1100
     33 H33        -7.2336    3.4290   51.2905 H       1  ZINC000680410869    0.0800
     34 H34        -5.7145    3.9348   52.0681 H       1  ZINC000680410869    0.0800
     35 H35        -5.7686    1.0696   51.3535 H       1  ZINC000680410869    0.0700
     36 H36        -5.9151    2.1514   49.9477 H       1  ZINC000680410869    0.0800
     37 H37        -4.1731    2.9065   53.1330 H       1  ZINC000680410869    0.1200
     38 H38        -1.7641    3.3997   53.2614 H       1  ZINC000680410869    0.1200
     39 H39        -0.3480    3.1496   51.2625 H       1  ZINC000680410869    0.1200
     40 H40        -1.3407    2.4054   49.1356 H       1  ZINC000680410869    0.1200
     41 H41        -3.7489    1.9077   49.0085 H       1  ZINC000680410869    0.1200
     42 H42        -7.4661    4.3086   53.9432 H       1  ZINC000680410869    0.0800
     43 H43        -5.8506    3.8020   54.5012 H       1  ZINC000680410869    0.1300
@<TRIPOS>BOND
     1     1     2    2
     2     2     3    1
     3     2    11   am
     4     3    10    1
     5     3     4    2
     6     4     5    1
     7     5     6    1
     8     5     9    1
     9     6     7    1
    10     6     8    1
    11     6    26    1
    12     9    10    2
    13     9    27    1
    14    10    28    1
    15    11    25    1
    16    11    12    1
    17    12    13    1
    18    12    29    1
    19    12    30    1
    20    13    14    1
    21    13    31    1
    22    13    32    1
    23    14    15    1
    24    15    16    1
    25    15    17    1
    26    15    25    1
    27    17    18    1
    28    17    33    1
    29    17    34    1
    30    18    19    1
    31    18    35    1
    32    18    36    1
    33    19    24   ar
    34    19    20   ar
    35    20    21   ar
    36    20    37    1
    37    21    22   ar
    38    21    38    1
    39    22    23   ar
    40    22    39    1
    41    23    24   ar
    42    23    40    1
    43    24    41    1
    44    25    42    1
    45    25    43    1
@<TRIPOS>SUBSTRUCTURE
     1 ZINC000680410869        1 TEMP              0 ****  ****    0 ROOT


##########                                Name:    ZINC000463741321
##########                DOCK_Rotatable_Bonds:                   7
##########                         Heavy_Atoms:                  26
##########                    Molecular_Weight:             354.467
##########                DOCK_Rotatable_Bonds:                   7
##########                       Formal_Charge:         -6.4075e-07
##########                     HBond_Acceptors:                   4
##########                        HBond_Donors:                   1
##########                         Heavy_Atoms:                  26
##########                          Grid_Score:          -29.044806
##########                     Grid_vdw_energy:          -28.111036
##########                      Grid_es_energy:           -0.933770
##########           Internal_energy_repulsive:           10.590193

@<TRIPOS>MOLECULE
ZINC000463741321
 53 55 1 0 0
SMALL
USER_CHARGES


@<TRIPOS>ATOM
      1 C1         -1.7284    2.9363   56.1117 C.3     1  ZINC000463741321   -0.1500
      2 C2         -2.5877    4.0108   55.4422 C.3     1  ZINC000463741321   -0.1100
      3 H3         -2.0156    4.9350   55.3608 H       1  ZINC000463741321    0.1000
      4 C4         -2.9968    3.5395   54.0453 C.3     1  ZINC000463741321   -0.0900
      5 C5         -2.1955    4.3081   52.9927 C.3     1  ZINC000463741321   -0.0800
      6 C6         -1.9757    3.4296   51.7882 C.ar    1  ZINC000463741321   -0.1200
      7 C7         -0.6938    3.0650   51.4234 C.ar    1  ZINC000463741321   -0.0900
      8 C8         -0.4918    2.2589   50.3182 C.ar    1  ZINC000463741321   -0.1300
      9 C9         -1.5717    1.8172   49.5770 C.ar    1  ZINC000463741321   -0.1000
     10 C10        -2.8548    2.1809   49.9399 C.ar    1  ZINC000463741321   -0.1500
     11 C11        -3.0587    2.9825   51.0500 C.ar    1  ZINC000463741321    0.1000
     12 F12        -4.3125    3.3387   51.4056 F       1  ZINC000463741321   -0.1400
     13 C13        -3.8221    4.2556   56.2713 C.2     1  ZINC000463741321    0.5200
     14 O14        -3.9107    5.2603   56.9449 O.2     1  ZINC000463741321   -0.5300
     15 N15        -4.8275    3.3581   56.2643 N.am    1  ZINC000463741321   -0.7300
     16 C16        -6.0268    3.5953   57.0717 C.3     1  ZINC000463741321    0.1500
     17 H17        -5.7386    4.0062   58.0392 H       1  ZINC000463741321    0.1000
     18 C18        -6.9426    4.5862   56.3479 C.3     1  ZINC000463741321   -0.1300
     19 C19        -8.2199    4.7822   57.1693 C.3     1  ZINC000463741321   -0.1200
     20 C20        -8.9027    3.4278   57.3727 C.3     1  ZINC000463741321    0.0600
     21 N21        -7.9863    2.5161   58.0695 N.3     1  ZINC000463741321   -0.4800
     22 C22        -8.6226    1.3143   58.3885 C.ar    1  ZINC000463741321    0.1100
     23 C23        -8.7626    0.9319   59.7166 C.ar    1  ZINC000463741321   -0.1700
     24 C24        -9.3927   -0.2568   60.0286 C.ar    1  ZINC000463741321   -0.0900
     25 C25        -9.8834   -1.0663   59.0205 C.ar    1  ZINC000463741321   -0.1500
     26 C26        -9.7458   -0.6886   57.6974 C.ar    1  ZINC000463741321   -0.0900
     27 C27        -9.1218    0.5015   57.3787 C.ar    1  ZINC000463741321   -0.1400
     28 C28        -6.7726    2.2751   57.2788 C.3     1  ZINC000463741321    0.0500
     29 H29        -2.3006    2.0121   56.1931 H       1  ZINC000463741321    0.0600
     30 H30        -0.8356    2.7593   55.5120 H       1  ZINC000463741321    0.0700
     31 H31        -1.4370    3.2721   57.1069 H       1  ZINC000463741321    0.0600
     32 H32        -2.7948    2.4727   53.9481 H       1  ZINC000463741321    0.0700
     33 H33        -4.0611    3.7227   53.8972 H       1  ZINC000463741321    0.0700
     34 H34        -2.7473    5.2001   52.6959 H       1  ZINC000463741321    0.0800
     35 H35        -1.2320    4.5994   53.4107 H       1  ZINC000463741321    0.0800
     36 H36         0.1506    3.4102   52.0013 H       1  ZINC000463741321    0.1300
     37 H37         0.5105    1.9746   50.0338 H       1  ZINC000463741321    0.1300
     38 H38        -1.4127    1.1879   48.7138 H       1  ZINC000463741321    0.1300
     39 H39        -3.6983    1.8362   49.3601 H       1  ZINC000463741321    0.1400
     40 H40        -4.7572    2.5552   55.7247 H       1  ZINC000463741321    0.4000
     41 H41        -6.4303    5.5419   56.2373 H       1  ZINC000463741321    0.0700
     42 H42        -7.1991    4.1933   55.3640 H       1  ZINC000463741321    0.0600
     43 H43        -7.9668    5.2115   58.1387 H       1  ZINC000463741321    0.0800
     44 H44        -8.8946    5.4537   56.6382 H       1  ZINC000463741321    0.0800
     45 H45        -9.8049    3.5620   57.9694 H       1  ZINC000463741321    0.0900
     46 H46        -9.1679    3.0055   56.4035 H       1  ZINC000463741321    0.0500
     47 H47        -8.3789    1.5633   60.5043 H       1  ZINC000463741321    0.1200
     48 H48        -9.5019   -0.5547   61.0609 H       1  ZINC000463741321    0.1200
     49 H49       -10.3751   -1.9957   59.2672 H       1  ZINC000463741321    0.1200
     50 H50       -10.1302   -1.3232   56.9125 H       1  ZINC000463741321    0.1200
     51 H51        -9.0148    0.7960   56.3451 H       1  ZINC000463741321    0.1300
     52 H52        -7.0472    1.8583   56.3098 H       1  ZINC000463741321    0.0500
     53 H53        -6.1285    1.5722   57.8072 H       1  ZINC000463741321    0.0900
@<TRIPOS>BOND
     1     1     2    1
     2     1    29    1
     3     1    30    1
     4     1    31    1
     5     2     3    1
     6     2     4    1
     7     2    13    1
     8     4     5    1
     9     4    32    1
    10     4    33    1
    11     5     6    1
    12     5    34    1
    13     5    35    1
    14     6    11   ar
    15     6     7   ar
    16     7     8   ar
    17     7    36    1
    18     8     9   ar
    19     8    37    1
    20     9    10   ar
    21     9    38    1
    22    10    11   ar
    23    10    39    1
    24    11    12    1
    25    13    14    2
    26    13    15   am
    27    15    16    1
    28    15    40    1
    29    16    17    1
    30    16    28    1
    31    16    18    1
    32    18    19    1
    33    18    41    1
    34    18    42    1
    35    19    20    1
    36    19    43    1
    37    19    44    1
    38    20    21    1
    39    20    45    1
    40    20    46    1
    41    21    22    1
    42    21    28    1
    43    22    27   ar
    44    22    23   ar
    45    23    24   ar
    46    23    47    1
    47    24    25   ar
    48    24    48    1
    49    25    26   ar
    50    25    49    1
    51    26    27   ar
    52    26    50    1
    53    27    51    1
    54    28    52    1
    55    28    53    1
@<TRIPOS>SUBSTRUCTURE
     1 ZINC000463741321        1 TEMP              0 ****  ****    0 ROOT


##########                                Name:    ZINC001045463759
##########                DOCK_Rotatable_Bonds:                   6
##########                         Heavy_Atoms:                  24
##########                    Molecular_Weight:             336.385
##########                DOCK_Rotatable_Bonds:                   6
##########                       Formal_Charge:          1.3411e-07
##########                     HBond_Acceptors:                   7
##########                        HBond_Donors:                   2
##########                         Heavy_Atoms:                  24
##########                          Grid_Score:          -29.037079
##########                     Grid_vdw_energy:          -27.625462
##########                      Grid_es_energy:           -1.411616
##########           Internal_energy_repulsive:            7.778751

@<TRIPOS>MOLECULE
ZINC001045463759
 46 49 1 0 0
SMALL
USER_CHARGES


@<TRIPOS>ATOM
      1 O1          1.1567    4.5321   56.0652 O.2     1  ZINC001045463759   -0.5100
      2 C2          0.9886    3.3990   55.6665 C.2     1  ZINC001045463759    0.5400
      3 N3         -0.2604    2.9312   55.4727 N.am    1  ZINC001045463759   -0.7200
      4 C4         -1.4151    3.7892   55.7495 C.3     1  ZINC001045463759    0.1400
      5 H5         -1.0865    4.8251   55.8323 H       1  ZINC001045463759    0.1000
      6 C6         -2.0699    3.3553   57.0624 C.3     1  ZINC001045463759   -0.1300
      7 C7         -3.2759    4.2514   57.3515 C.3     1  ZINC001045463759   -0.1200
      8 C8         -4.2884    4.1273   56.2112 C.3     1  ZINC001045463759   -0.1200
      9 C9         -3.6337    4.5611   54.8982 C.3     1  ZINC001045463759   -0.1300
     10 C10        -2.4277    3.6651   54.6092 C.3     1  ZINC001045463759    0.1500
     11 H11        -2.7564    2.6291   54.5264 H       1  ZINC001045463759    0.0900
     12 N12        -1.8008    4.0805   53.3520 N.pl3   1  ZINC001045463759   -0.7100
     13 C13        -2.1458    3.4537   52.1656 C.ar    1  ZINC001045463759    0.4400
     14 C14        -1.1743    3.1738   51.2027 C.ar    1  ZINC001045463759   -0.3000
     15 C15        -1.5686    2.5477   50.0365 C.ar    1  ZINC001045463759    0.1800
     16 N16        -2.8460    2.2351   49.8704 N.ar    1  ZINC001045463759   -0.5600
     17 C17        -3.7392    2.5128   50.7986 C.ar    1  ZINC001045463759    0.4000
     18 C18        -5.1800    2.1381   50.5645 C.3     1  ZINC001045463759   -0.1100
     19 C19        -5.5175    0.6482   50.4793 C.3     1  ZINC001045463759   -0.1500
     20 C20        -5.9280    1.4563   51.7119 C.3     1  ZINC001045463759   -0.1500
     21 N21        -3.4068    3.1041   51.9282 N.ar    1  ZINC001045463759   -0.5700
     22 C22         2.1765    2.5164   55.3818 C.3     1  ZINC001045463759   -0.2000
     23 H23         2.2782    1.6430   56.0260 H       1  ZINC001045463759    0.1500
     24 C24         2.6176    2.3741   53.9237 C.3     1  ZINC001045463759   -0.1500
     25 C25         3.4616    3.1943   54.9026 C.3     1  ZINC001045463759    0.2300
     26 F26         3.4440    4.5861   54.7617 F       1  ZINC001045463759   -0.1400
     27 F27         4.6775    2.6456   55.3242 F       1  ZINC001045463759   -0.1500
     28 H28        -0.3948    2.0263   55.1501 H       1  ZINC001045463759    0.4000
     29 H29        -2.3986    2.3194   56.9796 H       1  ZINC001045463759    0.0700
     30 H30        -1.3486    3.4438   57.8749 H       1  ZINC001045463759    0.0800
     31 H31        -3.7424    3.9424   58.2869 H       1  ZINC001045463759    0.0700
     32 H32        -2.9472    5.2874   57.4344 H       1  ZINC001045463759    0.0700
     33 H33        -4.6171    3.0914   56.1284 H       1  ZINC001045463759    0.0700
     34 H34        -5.1476    4.7657   56.4171 H       1  ZINC001045463759    0.0700
     35 H35        -4.3550    4.4727   54.0858 H       1  ZINC001045463759    0.0700
     36 H36        -3.3050    5.5971   54.9811 H       1  ZINC001045463759    0.0700
     37 H37        -1.1441    4.7944   53.3502 H       1  ZINC001045463759    0.4100
     38 H38        -0.1405    3.4407   51.3654 H       1  ZINC001045463759    0.1400
     39 H39        -0.8450    2.3158   49.2690 H       1  ZINC001045463759    0.1700
     40 H40        -5.7458    2.8197   49.9295 H       1  ZINC001045463759    0.1300
     41 H41        -6.3055    0.3494   49.7880 H       1  ZINC001045463759    0.1000
     42 H42        -4.6973   -0.0609   50.5925 H       1  ZINC001045463759    0.1100
     43 H43        -5.3780    1.2788   52.6361 H       1  ZINC001045463759    0.1000
     44 H44        -6.9861    1.6891   51.8316 H       1  ZINC001045463759    0.1000
     45 H45         3.0100    1.4073   53.6087 H       1  ZINC001045463759    0.1400
     46 H46         2.0487    2.9190   53.1704 H       1  ZINC001045463759    0.1300
@<TRIPOS>BOND
     1     1     2    2
     2     2     3   am
     3     2    22    1
     4     3     4    1
     5     3    28    1
     6     4     5    1
     7     4    10    1
     8     4     6    1
     9     6     7    1
    10     6    29    1
    11     6    30    1
    12     7     8    1
    13     7    31    1
    14     7    32    1
    15     8     9    1
    16     8    33    1
    17     8    34    1
    18     9    10    1
    19     9    35    1
    20     9    36    1
    21    10    11    1
    22    10    12    1
    23    12    13    1
    24    12    37    1
    25    13    21   ar
    26    13    14   ar
    27    14    15   ar
    28    14    38    1
    29    15    16   ar
    30    15    39    1
    31    16    17   ar
    32    17    18    1
    33    17    21   ar
    34    18    20    1
    35    18    19    1
    36    18    40    1
    37    19    20    1
    38    19    41    1
    39    19    42    1
    40    20    43    1
    41    20    44    1
    42    22    23    1
    43    22    25    1
    44    22    24    1
    45    24    25    1
    46    24    45    1
    47    24    46    1
    48    25    26    1
    49    25    27    1
@<TRIPOS>SUBSTRUCTURE
     1 ZINC001045463759        1 TEMP              0 ****  ****    0 ROOT


##########                                Name:    ZINC000028372981
##########                DOCK_Rotatable_Bonds:                   7
##########                         Heavy_Atoms:                  28
##########                    Molecular_Weight:             380.443
##########                DOCK_Rotatable_Bonds:                   7
##########                       Formal_Charge:         1.78814e-07
##########                     HBond_Acceptors:                   6
##########                        HBond_Donors:                   1
##########                         Heavy_Atoms:                  28
##########                          Grid_Score:          -29.031109
##########                     Grid_vdw_energy:          -29.329927
##########                      Grid_es_energy:            0.298819
##########           Internal_energy_repulsive:           15.945721

@<TRIPOS>MOLECULE
ZINC000028372981
 52 54 1 0 0
SMALL
USER_CHARGES


@<TRIPOS>ATOM
      1 C1          1.9240    2.5358   50.6997 C.3     1  ZINC000028372981   -0.1800
      2 C2          0.4416    2.2936   50.5779 C.2     1  ZINC000028372981    0.5200
      3 O3          0.0290    1.4071   49.8605 O.2     1  ZINC000028372981   -0.5100
      4 N4         -0.4255    3.0622   51.2662 N.am    1  ZINC000028372981   -0.5500
      5 C5         -0.0466    4.1579   52.1620 C.3     1  ZINC000028372981    0.1000
      6 C6         -1.3739    4.7169   52.7000 C.3     1  ZINC000028372981   -0.0900
      7 C7         -2.4375    3.8647   52.0441 C.ar    1  ZINC000028372981   -0.1500
      8 C8         -3.8103    3.9033   52.1429 C.ar    1  ZINC000028372981    0.0000
      9 C9         -4.5890    2.9890   51.4275 C.ar    1  ZINC000028372981   -0.1600
     10 C10        -6.0593    3.0225   51.5336 C.2     1  ZINC000028372981    0.5200
     11 O11        -6.7205    3.5345   50.6519 O.2     1  ZINC000028372981   -0.5000
     12 O12        -6.6698    2.4855   52.6081 O.3     1  ZINC000028372981   -0.3200
     13 C13        -7.7839    3.2263   53.1721 C.3     1  ZINC000028372981    0.0700
     14 H14        -8.3510    3.6970   52.3689 H       1  ZINC000028372981    0.1200
     15 C15        -7.2527    4.3032   54.1202 C.3     1  ZINC000028372981   -0.1700
     16 C16        -8.6797    2.2837   53.9339 C.2     1  ZINC000028372981    0.5200
     17 O17        -9.8824    2.3397   53.7884 O.2     1  ZINC000028372981   -0.4900
     18 N18        -8.1442    1.3785   54.7768 N.am    1  ZINC000028372981   -0.6600
     19 C19        -8.9759    0.5034   55.4840 C.ar    1  ZINC000028372981    0.1500
     20 C20        -9.8075   -0.3724   54.7989 C.ar    1  ZINC000028372981   -0.1300
     21 C21       -10.6270   -1.2355   55.5001 C.ar    1  ZINC000028372981   -0.1000
     22 C22       -10.6194   -1.2281   56.8827 C.ar    1  ZINC000028372981   -0.1300
     23 C23        -9.7920   -0.3574   57.5681 C.ar    1  ZINC000028372981   -0.0700
     24 C24        -9.7865   -0.3531   59.0750 C.3     1  ZINC000028372981   -0.1200
     25 C25        -8.9710    0.5086   56.8730 C.ar    1  ZINC000028372981   -0.1200
     26 C26        -8.0704    1.4578   57.6206 C.3     1  ZINC000028372981   -0.1200
     27 C27        -3.9636    2.0464   50.6062 C.ar    1  ZINC000028372981   -0.0200
     28 C28        -2.5934    2.0186   50.5095 C.ar    1  ZINC000028372981   -0.1800
     29 C29        -1.8123    2.9295   51.2290 C.ar    1  ZINC000028372981    0.1900
     30 H30         2.2286    2.4105   51.7387 H       1  ZINC000028372981    0.1000
     31 H31         2.4613    1.8221   50.0750 H       1  ZINC000028372981    0.1000
     32 H32         2.1545    3.5499   50.3733 H       1  ZINC000028372981    0.1000
     33 H33         0.5650    3.7814   52.9820 H       1  ZINC000028372981    0.0900
     34 H34         0.4921    4.9281   51.6102 H       1  ZINC000028372981    0.0900
     35 H35        -1.4186    4.6135   53.7842 H       1  ZINC000028372981    0.1000
     36 H36        -1.4907    5.7620   52.4130 H       1  ZINC000028372981    0.1000
     37 H37        -4.2855    4.6374   52.7765 H       1  ZINC000028372981    0.1400
     38 H38        -6.6856    3.8325   54.9234 H       1  ZINC000028372981    0.0800
     39 H39        -6.6047    4.9849   53.5692 H       1  ZINC000028372981    0.0800
     40 H40        -8.0890    4.8593   54.5436 H       1  ZINC000028372981    0.0800
     41 H41        -7.1822    1.3339   54.8931 H       1  ZINC000028372981    0.4100
     42 H42        -9.8103   -0.3819   53.7189 H       1  ZINC000028372981    0.1400
     43 H43       -11.2740   -1.9169   54.9677 H       1  ZINC000028372981    0.1300
     44 H44       -11.2608   -1.9042   57.4286 H       1  ZINC000028372981    0.1200
     45 H45        -9.0401   -1.0598   59.4377 H       1  ZINC000028372981    0.0700
     46 H46        -9.5451    0.6471   59.4346 H       1  ZINC000028372981    0.0700
     47 H47       -10.7707   -0.6437   59.4427 H       1  ZINC000028372981    0.0700
     48 H48        -7.1076    0.9795   57.8005 H       1  ZINC000028372981    0.0700
     49 H49        -7.9224    2.3607   57.0283 H       1  ZINC000028372981    0.0600
     50 H50        -8.5297    1.7197   58.5737 H       1  ZINC000028372981    0.0800
     51 H51        -4.5583    1.3395   50.0468 H       1  ZINC000028372981    0.1500
     52 H52        -2.1156    1.2879   49.8737 H       1  ZINC000028372981    0.1500
@<TRIPOS>BOND
     1     1     2    1
     2     1    30    1
     3     1    31    1
     4     1    32    1
     5     2     3    2
     6     2     4   am
     7     4    29    1
     8     4     5    1
     9     5     6    1
    10     5    33    1
    11     5    34    1
    12     6     7    1
    13     6    35    1
    14     6    36    1
    15     7    29   ar
    16     7     8   ar
    17     8     9   ar
    18     8    37    1
    19     9    10    1
    20     9    27   ar
    21    10    11    2
    22    10    12    1
    23    12    13    1
    24    13    14    1
    25    13    15    1
    26    13    16    1
    27    15    38    1
    28    15    39    1
    29    15    40    1
    30    16    17    2
    31    16    18   am
    32    18    19    1
    33    18    41    1
    34    19    25   ar
    35    19    20   ar
    36    20    21   ar
    37    20    42    1
    38    21    22   ar
    39    21    43    1
    40    22    23   ar
    41    22    44    1
    42    23    24    1
    43    23    25   ar
    44    24    45    1
    45    24    46    1
    46    24    47    1
    47    25    26    1
    48    26    48    1
    49    26    49    1
    50    26    50    1
    51    27    28   ar
    52    27    51    1
    53    28    29   ar
    54    28    52    1
@<TRIPOS>SUBSTRUCTURE
     1 ZINC000028372981        1 TEMP              0 ****  ****    0 ROOT


##########                                Name:    ZINC000626935317
##########                DOCK_Rotatable_Bonds:                   6
##########                         Heavy_Atoms:                  25
##########                    Molecular_Weight:             366.441
##########                DOCK_Rotatable_Bonds:                   6
##########                       Formal_Charge:          -0.0200006
##########                     HBond_Acceptors:                   9
##########                        HBond_Donors:                   2
##########                         Heavy_Atoms:                  25
##########                          Grid_Score:          -29.025463
##########                     Grid_vdw_energy:          -29.012993
##########                      Grid_es_energy:           -0.012469
##########           Internal_energy_repulsive:           13.129431

@<TRIPOS>MOLECULE
ZINC000626935317
 47 49 1 0 0
SMALL
USER_CHARGES


@<TRIPOS>ATOM
      1 C1         -7.5197    0.5266   52.4642 C.3     1  ZINC000626935317    0.0900
      2 N2         -6.3490    1.1408   51.8328 N.am    1  ZINC000626935317   -0.6200
      3 C3         -5.6848    0.6126   50.7904 C.2     1  ZINC000626935317    0.5200
      4 O4         -5.9640   -0.4355   50.2480 O.2     1  ZINC000626935317   -0.5200
      5 C5         -4.5385    1.5160   50.3921 C.3     1  ZINC000626935317   -0.1500
      6 C6         -4.8624    2.8639   51.0771 C.3     1  ZINC000626935317   -0.1200
      7 H7         -5.4128    3.5213   50.4041 H       1  ZINC000626935317    0.1200
      8 C8         -3.6060    3.5329   51.5722 C.2     1  ZINC000626935317    0.5300
      9 O9         -2.5449    3.3076   51.0298 O.2     1  ZINC000626935317   -0.5200
     10 N10        -3.6616    4.3815   52.6178 N.am    1  ZINC000626935317   -0.7100
     11 C11        -2.4401    5.0305   53.1002 C.3     1  ZINC000626935317    0.1200
     12 C12        -2.6915    6.0807   54.1951 C.3     1  ZINC000626935317   -0.1600
     13 C13        -2.5502    4.9376   55.2140 C.3     1  ZINC000626935317    0.1200
     14 N14        -3.8124    4.2545   55.5084 N.am    1  ZINC000626935317   -1.1100
     15 S15        -4.0718    3.6048   57.0093 S.o2    1  ZINC000626935317    2.6100
     16 C16        -5.7313    2.8793   56.9077 C.3     1  ZINC000626935317   -0.6700
     17 O17        -3.0883    2.5856   57.1248 O.2     1  ZINC000626935317   -0.9500
     18 O18        -4.0704    4.7264   57.8817 O.2     1  ZINC000626935317   -0.9500
     19 C19        -1.6885    4.2147   54.1653 C.3     1  ZINC000626935317   -0.1600
     20 C20        -5.7546    2.4151   52.2534 C.3     1  ZINC000626935317    0.2000
     21 H21        -5.1513    2.2655   53.1488 H       1  ZINC000626935317    0.1100
     22 C22        -6.8283    3.4398   52.5141 C.ar    1  ZINC000626935317   -0.1600
     23 C23        -7.8371    3.6510   51.5869 C.ar    1  ZINC000626935317   -0.0500
     24 C24        -8.8042    4.6038   51.8693 C.ar    1  ZINC000626935317   -0.1700
     25 C25        -8.7310    5.3061   53.0570 C.ar    1  ZINC000626935317    0.1000
     26 N26        -7.7566    5.0788   53.9162 N.ar    1  ZINC000626935317   -0.4800
     27 C27        -6.8232    4.1771   53.6833 C.ar    1  ZINC000626935317    0.1200
     28 H28        -8.4253    0.8764   51.9685 H       1  ZINC000626935317    0.0600
     29 H29        -7.4530   -0.5579   52.3758 H       1  ZINC000626935317    0.0800
     30 H30        -7.5518    0.8040   53.5178 H       1  ZINC000626935317    0.0700
     31 H31        -3.5933    1.1180   50.7609 H       1  ZINC000626935317    0.1100
     32 H32        -4.5063    1.6365   49.3093 H       1  ZINC000626935317    0.1200
     33 H33        -4.5105    4.5627   53.0509 H       1  ZINC000626935317    0.4000
     34 H34        -1.8016    5.3855   52.2912 H       1  ZINC000626935317    0.1100
     35 H35        -1.9046    6.8313   54.2691 H       1  ZINC000626935317    0.1100
     36 H36        -3.6906    6.5152   54.1620 H       1  ZINC000626935317    0.0800
     37 H37        -2.0017    5.2192   56.1129 H       1  ZINC000626935317    0.1100
     38 H38        -4.4961    4.1827   54.8240 H       1  ZINC000626935317    0.4100
     39 H39        -5.7485    2.1192   56.1268 H       1  ZINC000626935317    0.1300
     40 H40        -5.9878    2.4235   57.8641 H       1  ZINC000626935317    0.1300
     41 H41        -6.4550    3.6595   56.6714 H       1  ZINC000626935317    0.1300
     42 H42        -1.8778    3.1427   54.1083 H       1  ZINC000626935317    0.0900
     43 H43        -0.6274    4.4551   54.2312 H       1  ZINC000626935317    0.1100
     44 H44        -7.8687    3.0872   50.6664 H       1  ZINC000626935317    0.1400
     45 H45        -9.6045    4.7948   51.1695 H       1  ZINC000626935317    0.1400
     46 H46        -9.4801    6.0501   53.2843 H       1  ZINC000626935317    0.1600
     47 H47        -6.0407    4.0187   54.4107 H       1  ZINC000626935317    0.1500
@<TRIPOS>BOND
     1     1     2    1
     2     1    28    1
     3     1    29    1
     4     1    30    1
     5     2    20    1
     6     2     3   am
     7     3     4    2
     8     3     5    1
     9     5     6    1
    10     5    31    1
    11     5    32    1
    12     6     7    1
    13     6     8    1
    14     6    20    1
    15     8     9    2
    16     8    10   am
    17    10    11    1
    18    10    33    1
    19    11    19    1
    20    11    12    1
    21    11    34    1
    22    12    13    1
    23    12    35    1
    24    12    36    1
    25    13    14    1
    26    13    19    1
    27    13    37    1
    28    14    15   am
    29    14    38    1
    30    15    16    1
    31    15    17    2
    32    15    18    2
    33    16    39    1
    34    16    40    1
    35    16    41    1
    36    19    42    1
    37    19    43    1
    38    20    21    1
    39    20    22    1
    40    22    27   ar
    41    22    23   ar
    42    23    24   ar
    43    23    44    1
    44    24    25   ar
    45    24    45    1
    46    25    26   ar
    47    25    46    1
    48    26    27   ar
    49    27    47    1
@<TRIPOS>SUBSTRUCTURE
     1 ZINC000626935317        1 TEMP              0 ****  ****    0 ROOT


##########                                Name:    ZINC000192150625
##########                DOCK_Rotatable_Bonds:                   5
##########                         Heavy_Atoms:                  28
##########                    Molecular_Weight:             377.443
##########                DOCK_Rotatable_Bonds:                   5
##########                       Formal_Charge:           0.0199997
##########                     HBond_Acceptors:                   6
##########                        HBond_Donors:                   1
##########                         Heavy_Atoms:                  28
##########                          Grid_Score:          -29.023994
##########                     Grid_vdw_energy:          -28.173267
##########                      Grid_es_energy:           -0.850727
##########           Internal_energy_repulsive:           22.108507

@<TRIPOS>MOLECULE
ZINC000192150625
 51 54 1 0 0
SMALL
USER_CHARGES


@<TRIPOS>ATOM
      1 C1         -4.8844    3.1009   51.9585 C.3     1  ZINC000192150625   -0.0800
      2 C2         -5.6373    3.0346   53.2623 C.2     1  ZINC000192150625    0.0400
      3 C3         -6.5305    2.0894   53.5848 C.2     1  ZINC000192150625   -0.1800
      4 C4         -6.9607    0.9227   52.7336 C.3     1  ZINC000192150625   -0.0800
      5 C5         -7.0056    2.4187   54.9343 C.ar    1  ZINC000192150625   -0.1000
      6 C6         -7.9195    1.8393   55.8121 C.ar    1  ZINC000192150625   -0.0700
      7 C7         -8.1416    2.4212   57.0483 C.ar    1  ZINC000192150625    0.1200
      8 N8         -9.0569    1.8464   57.9364 N.am    1  ZINC000192150625   -0.6400
      9 C9         -8.6171    1.0904   58.9618 C.2     1  ZINC000192150625    0.5100
     10 O10        -7.4268    0.9084   59.1148 O.2     1  ZINC000192150625   -0.4900
     11 C11        -9.5943    0.4767   59.9099 C.2     1  ZINC000192150625    0.5100
     12 O12       -10.2907   -0.4492   59.5486 O.2     1  ZINC000192150625   -0.5200
     13 N13        -9.7027    0.9511   61.1668 N.am    1  ZINC000192150625   -0.5800
     14 C14       -10.6550    0.3538   62.1128 C.3     1  ZINC000192150625    0.0500
     15 C15        -9.9028   -0.0373   63.3888 C.3     1  ZINC000192150625   -0.1200
     16 C16        -9.1591    1.1846   63.9327 C.3     1  ZINC000192150625   -0.0500
     17 C17        -8.4455    0.8120   65.2067 C.ar    1  ZINC000192150625   -0.0300
     18 C18        -7.2207    1.3779   65.5257 C.ar    1  ZINC000192150625   -0.1700
     19 C19        -6.5959    1.0119   66.7029 C.ar    1  ZINC000192150625    0.1000
     20 N20        -7.1511    0.1357   67.5171 N.ar    1  ZINC000192150625   -0.4900
     21 C21        -8.3147   -0.4225   67.2460 C.ar    1  ZINC000192150625    0.1000
     22 C22        -9.0010   -0.1007   66.0903 C.ar    1  ZINC000192150625   -0.1700
     23 C23        -8.1386    1.6649   62.8984 C.3     1  ZINC000192150625   -0.1200
     24 C24        -8.8664    2.0714   61.6188 C.3     1  ZINC000192150625    0.1100
     25 C25        -7.4547    3.5785   57.4097 C.ar    1  ZINC000192150625   -0.1100
     26 C26        -6.5501    4.1560   56.5464 C.ar    1  ZINC000192150625   -0.0800
     27 C27        -6.3144    3.5857   55.3017 C.ar    1  ZINC000192150625    0.0500
     28 O28        -5.5055    3.9120   54.2723 O.3     1  ZINC000192150625   -0.1900
     29 H29        -4.2221    3.9666   51.9649 H       1  ZINC000192150625    0.0800
     30 H30        -4.2946    2.1931   51.8329 H       1  ZINC000192150625    0.0900
     31 H31        -5.5922    3.1912   51.1344 H       1  ZINC000192150625    0.0900
     32 H32        -6.3125    0.0692   52.9327 H       1  ZINC000192150625    0.0700
     33 H33        -7.9913    0.6596   52.9718 H       1  ZINC000192150625    0.0700
     34 H34        -6.8894    1.1953   51.6806 H       1  ZINC000192150625    0.0700
     35 H35        -8.4511    0.9425   55.5298 H       1  ZINC000192150625    0.1400
     36 H36       -10.0081    1.9919   57.8142 H       1  ZINC000192150625    0.4300
     37 H37       -11.4328    1.0782   62.3547 H       1  ZINC000192150625    0.0700
     38 H38       -11.1049   -0.5334   61.6674 H       1  ZINC000192150625    0.1600
     39 H39       -10.6131   -0.3931   64.1352 H       1  ZINC000192150625    0.0800
     40 H40        -9.1871   -0.8274   63.1614 H       1  ZINC000192150625    0.0700
     41 H41        -9.8727    1.9830   64.1363 H       1  ZINC000192150625    0.0900
     42 H42        -6.7606    2.0955   64.8626 H       1  ZINC000192150625    0.1300
     43 H43        -5.6416    1.4482   66.9587 H       1  ZINC000192150625    0.1600
     44 H44        -8.7381   -1.1363   67.9369 H       1  ZINC000192150625    0.1600
     45 H45        -9.9537   -0.5610   65.8740 H       1  ZINC000192150625    0.1300
     46 H46        -7.5931    2.5209   63.2958 H       1  ZINC000192150625    0.0800
     47 H47        -7.4394    0.8589   62.6757 H       1  ZINC000192150625    0.0700
     48 H48        -8.1378    2.3198   60.8471 H       1  ZINC000192150625    0.1000
     49 H49        -9.5001    2.9357   61.8176 H       1  ZINC000192150625    0.0800
     50 H50        -7.6337    4.0271   58.3758 H       1  ZINC000192150625    0.1400
     51 H51        -6.0235    5.0529   56.8372 H       1  ZINC000192150625    0.1400
@<TRIPOS>BOND
     1     1     2    1
     2     1    29    1
     3     1    30    1
     4     1    31    1
     5     2    28    1
     6     2     3    2
     7     3     4    1
     8     3     5    1
     9     4    32    1
    10     4    33    1
    11     4    34    1
    12     5    27   ar
    13     5     6   ar
    14     6     7   ar
    15     6    35    1
    16     7     8    1
    17     7    25   ar
    18     8     9   am
    19     8    36    1
    20     9    10    2
    21     9    11    1
    22    11    12    2
    23    11    13   am
    24    13    24    1
    25    13    14    1
    26    14    15    1
    27    14    37    1
    28    14    38    1
    29    15    16    1
    30    15    39    1
    31    15    40    1
    32    16    17    1
    33    16    23    1
    34    16    41    1
    35    17    22   ar
    36    17    18   ar
    37    18    19   ar
    38    18    42    1
    39    19    20   ar
    40    19    43    1
    41    20    21   ar
    42    21    22   ar
    43    21    44    1
    44    22    45    1
    45    23    24    1
    46    23    46    1
    47    23    47    1
    48    24    48    1
    49    24    49    1
    50    25    26   ar
    51    25    50    1
    52    26    27   ar
    53    26    51    1
    54    27    28    1
@<TRIPOS>SUBSTRUCTURE
     1 ZINC000192150625        1 TEMP              0 ****  ****    0 ROOT


##########                                Name:    ZINC001009984555
##########                DOCK_Rotatable_Bonds:                   7
##########                         Heavy_Atoms:                  23
##########                    Molecular_Weight:             338.446
##########                DOCK_Rotatable_Bonds:                   7
##########                       Formal_Charge:           0.0400002
##########                     HBond_Acceptors:                   6
##########                        HBond_Donors:                   1
##########                         Heavy_Atoms:                  23
##########                          Grid_Score:          -29.022318
##########                     Grid_vdw_energy:          -27.734365
##########                      Grid_es_energy:           -1.287952
##########           Internal_energy_repulsive:            9.371912

@<TRIPOS>MOLECULE
ZINC001009984555
 46 47 1 0 0
SMALL
USER_CHARGES


@<TRIPOS>ATOM
      1 C1         -8.7399    0.8353   61.2052 C.3     1  ZINC001009984555   -0.1400
      2 S2         -7.8217   -0.2619   60.0900 S.3     1  ZINC001009984555   -0.1800
      3 C3         -8.0234    0.5372   58.4741 C.3     1  ZINC001009984555   -0.1300
      4 C4         -9.3304    0.1060   57.8601 C.2     1  ZINC001009984555    0.5500
      5 O5        -10.1344   -0.5169   58.5207 O.2     1  ZINC001009984555   -0.5100
      6 N6         -9.6058    0.4125   56.5768 N.am    1  ZINC001009984555   -0.6100
      7 C7         -8.7195    1.1541   55.6614 C.3     1  ZINC001009984555    0.1000
      8 C8         -9.1590    0.7155   54.2422 C.3     1  ZINC001009984555   -0.1100
      9 H9         -8.7179   -0.2451   53.9760 H       1  ZINC001009984555    0.1000
     10 C10        -8.8072    1.7836   53.2047 C.3     1  ZINC001009984555    0.1300
     11 N11        -7.3720    1.7291   52.9151 N.am    1  ZINC001009984555   -0.7300
     12 C12        -6.7638    2.7760   52.3230 C.2     1  ZINC001009984555    0.5600
     13 O13        -7.4057    3.7659   52.0305 O.2     1  ZINC001009984555   -0.5200
     14 C14        -5.3158    2.7204   52.0293 C.ar    1  ZINC001009984555   -0.1200
     15 C15        -4.8667    2.1949   50.8170 C.ar    1  ZINC001009984555   -0.0900
     16 C16        -3.5143    2.1452   50.5477 C.ar    1  ZINC001009984555   -0.1000
     17 C17        -2.6030    2.6144   51.4761 C.ar    1  ZINC001009984555   -0.1200
     18 C18        -3.0411    3.1377   52.6823 C.ar    1  ZINC001009984555    0.0900
     19 F19        -2.1453    3.5943   53.5846 F       1  ZINC001009984555   -0.1300
     20 C20        -4.3931    3.1985   52.9608 C.ar    1  ZINC001009984555   -0.0500
     21 C21        -4.8694    3.7677   54.2723 C.3     1  ZINC001009984555   -0.1200
     22 C22       -10.6959    0.5927   54.4160 C.3     1  ZINC001009984555   -0.1200
     23 C23       -10.8370    0.0571   55.8563 C.3     1  ZINC001009984555    0.1400
     24 H24       -11.6933    0.5239   56.3432 H       1  ZINC001009984555    0.0800
     25 C25       -11.0174   -1.4620   55.8312 C.3     1  ZINC001009984555   -0.1700
     26 H26        -9.7819    0.8848   60.8896 H       1  ZINC001009984555    0.0800
     27 H27        -8.6863    0.4470   62.2223 H       1  ZINC001009984555    0.1100
     28 H28        -8.3029    1.8334   61.1740 H       1  ZINC001009984555    0.0800
     29 H29        -8.0215    1.6197   58.6012 H       1  ZINC001009984555    0.1100
     30 H30        -7.2014    0.2467   57.8199 H       1  ZINC001009984555    0.1100
     31 H31        -8.8579    2.2280   55.7865 H       1  ZINC001009984555    0.0800
     32 H32        -7.6788    0.8818   55.8374 H       1  ZINC001009984555    0.0800
     33 H33        -9.3697    1.6001   52.2892 H       1  ZINC001009984555    0.0800
     34 H34        -9.0617    2.7683   53.5963 H       1  ZINC001009984555    0.0800
     35 H35        -6.8596    0.9396   53.1496 H       1  ZINC001009984555    0.4000
     36 H36        -5.5766    1.8271   50.0908 H       1  ZINC001009984555    0.1300
     37 H37        -3.1666    1.7384   49.6095 H       1  ZINC001009984555    0.1400
     38 H38        -1.5455    2.5724   51.2604 H       1  ZINC001009984555    0.1400
     39 H39        -5.1457    4.8132   54.1357 H       1  ZINC001009984555    0.0800
     40 H40        -5.7362    3.2052   54.6192 H       1  ZINC001009984555    0.1000
     41 H41        -4.0708    3.6965   55.0107 H       1  ZINC001009984555    0.0600
     42 H42       -11.1745    1.5667   54.3142 H       1  ZINC001009984555    0.0900
     43 H43       -11.1094   -0.1180   53.7004 H       1  ZINC001009984555    0.0900
     44 H44       -10.1496   -1.9231   55.3594 H       1  ZINC001009984555    0.0600
     45 H45       -11.1163   -1.8330   56.8513 H       1  ZINC001009984555    0.0700
     46 H46       -11.9145   -1.7120   55.2650 H       1  ZINC001009984555    0.0700
@<TRIPOS>BOND
     1     1     2    1
     2     1    26    1
     3     1    27    1
     4     1    28    1
     5     2     3    1
     6     3     4    1
     7     3    29    1
     8     3    30    1
     9     4     5    2
    10     4     6   am
    11     6    23    1
    12     6     7    1
    13     7     8    1
    14     7    31    1
    15     7    32    1
    16     8     9    1
    17     8    10    1
    18     8    22    1
    19    10    11    1
    20    10    33    1
    21    10    34    1
    22    11    12   am
    23    11    35    1
    24    12    13    2
    25    12    14    1
    26    14    20   ar
    27    14    15   ar
    28    15    16   ar
    29    15    36    1
    30    16    17   ar
    31    16    37    1
    32    17    18   ar
    33    17    38    1
    34    18    19    1
    35    18    20   ar
    36    20    21    1
    37    21    39    1
    38    21    40    1
    39    21    41    1
    40    22    23    1
    41    22    42    1
    42    22    43    1
    43    23    24    1
    44    23    25    1
    45    25    44    1
    46    25    45    1
    47    25    46    1
@<TRIPOS>SUBSTRUCTURE
     1 ZINC001009984555        1 TEMP              0 ****  ****    0 ROOT


##########                                Name:    ZINC001009116151
##########                DOCK_Rotatable_Bonds:                   6
##########                         Heavy_Atoms:                  25
##########                    Molecular_Weight:             342.481
##########                DOCK_Rotatable_Bonds:                   6
##########                       Formal_Charge:           0.0600006
##########                     HBond_Acceptors:                   4
##########                        HBond_Donors:                   1
##########                         Heavy_Atoms:                  25
##########                          Grid_Score:          -29.010950
##########                     Grid_vdw_energy:          -27.996731
##########                      Grid_es_energy:           -1.014218
##########           Internal_energy_repulsive:            9.932446

@<TRIPOS>MOLECULE
ZINC001009116151
 55 59 1 0 0
SMALL
USER_CHARGES


@<TRIPOS>ATOM
      1 O1         -9.6280    2.1465   52.6832 O.2     1  ZINC001009116151   -0.5400
      2 C2         -8.5662    1.5684   52.7798 C.2     1  ZINC001009116151    0.5200
      3 N3         -8.5394    0.2518   53.0668 N.am    1  ZINC001009116151   -0.7300
      4 C4         -9.7927   -0.4796   53.2681 C.3     1  ZINC001009116151    0.1500
      5 C5        -10.2390   -0.3357   54.7244 C.3     1  ZINC001009116151   -0.1200
      6 H6         -9.8897    0.5612   55.2360 H       1  ZINC001009116151    0.1100
      7 C7        -10.3663   -1.6157   55.5528 C.3     1  ZINC001009116151   -0.1700
      8 H8        -10.0757   -2.5704   55.1145 H       1  ZINC001009116151    0.1200
      9 C9        -10.3288   -1.4935   57.0914 C.3     1  ZINC001009116151    0.1300
     10 N10       -11.7354   -1.2385   57.4804 N.am    1  ZINC001009116151   -0.6200
     11 C11       -12.4023   -1.7337   58.5418 C.2     1  ZINC001009116151    0.5500
     12 O12       -11.8430   -2.4838   59.3134 O.2     1  ZINC001009116151   -0.5300
     13 C13       -13.8431   -1.3551   58.7698 C.3     1  ZINC001009116151   -0.1200
     14 C14       -14.7965   -2.4347   58.2071 C.3     1  ZINC001009116151   -0.0900
     15 C15       -15.0792   -3.3459   59.3789 C.2     1  ZINC001009116151   -0.1800
     16 C16       -14.7511   -2.7767   60.5067 C.2     1  ZINC001009116151   -0.1500
     17 C17       -14.1949   -1.3910   60.2752 C.3     1  ZINC001009116151   -0.0900
     18 C18       -12.2425   -0.3159   56.4382 C.3     1  ZINC001009116151    0.1200
     19 C19       -11.6285   -0.8608   55.0912 C.3     1  ZINC001009116151   -0.1600
     20 H20       -12.3188   -1.2447   54.3402 H       1  ZINC001009116151    0.1300
     21 C21        -7.2769    2.3208   52.5728 C.3     1  ZINC001009116151   -0.0700
     22 C22        -6.2395    1.3908   51.9407 C.3     1  ZINC001009116151   -0.1100
     23 C23        -4.9306    2.1546   51.7305 C.3     1  ZINC001009116151   -0.1100
     24 C24        -5.0955    3.5940   52.2225 C.3     1  ZINC001009116151   -0.0900
     25 C25        -6.2163    4.2766   51.4360 C.3     1  ZINC001009116151   -0.1100
     26 C26        -7.5252    3.5127   51.6462 C.3     1  ZINC001009116151   -0.0900
     27 C27        -5.4484    3.5868   53.7112 C.3     1  ZINC001009116151   -0.1100
     28 C28        -6.7573    2.8229   53.9214 C.3     1  ZINC001009116151   -0.1000
     29 H29        -7.6904   -0.2115   53.1401 H       1  ZINC001009116151    0.4000
     30 H30       -10.5607   -0.0723   52.6106 H       1  ZINC001009116151    0.0800
     31 H31        -9.6390   -1.5339   53.0376 H       1  ZINC001009116151    0.0700
     32 H32        -9.9733   -2.4221   57.5379 H       1  ZINC001009116151    0.0900
     33 H33        -9.6944   -0.6593   57.3911 H       1  ZINC001009116151    0.0800
     34 H34       -14.0611   -0.3773   58.3403 H       1  ZINC001009116151    0.1100
     35 H35       -15.7194   -1.9776   57.8503 H       1  ZINC001009116151    0.0900
     36 H36       -14.3108   -2.9888   57.4038 H       1  ZINC001009116151    0.0800
     37 H37       -15.4981   -4.3377   59.2943 H       1  ZINC001009116151    0.1300
     38 H38       -14.8629   -3.2358   61.4779 H       1  ZINC001009116151    0.1300
     39 H39       -13.3002   -1.2354   60.8780 H       1  ZINC001009116151    0.0900
     40 H40       -14.9463   -0.6365   60.5077 H       1  ZINC001009116151    0.0900
     41 H41       -13.3308   -0.3561   56.3919 H       1  ZINC001009116151    0.0900
     42 H42       -11.9069    0.7021   56.6359 H       1  ZINC001009116151    0.0800
     43 H43        -6.0626    0.5417   52.6009 H       1  ZINC001009116151    0.0700
     44 H44        -6.6098    1.0331   50.9800 H       1  ZINC001009116151    0.0700
     45 H45        -4.1321    1.6684   52.2909 H       1  ZINC001009116151    0.0700
     46 H46        -4.6792    2.1598   50.6699 H       1  ZINC001009116151    0.0700
     47 H47        -4.1629    4.1382   52.0728 H       1  ZINC001009116151    0.0700
     48 H48        -6.3337    5.3020   51.7865 H       1  ZINC001009116151    0.0700
     49 H49        -5.9649    4.2817   50.3753 H       1  ZINC001009116151    0.0700
     50 H50        -7.8954    3.1550   50.6854 H       1  ZINC001009116151    0.0700
     51 H51        -8.2643    4.1753   52.0965 H       1  ZINC001009116151    0.0700
     52 H52        -4.6499    3.1005   54.2716 H       1  ZINC001009116151    0.0700
     53 H53        -5.5658    4.6122   54.0617 H       1  ZINC001009116151    0.0700
     54 H54        -7.4963    3.4855   54.3718 H       1  ZINC001009116151    0.0700
     55 H55        -6.5804    1.9738   54.5816 H       1  ZINC001009116151    0.0700
@<TRIPOS>BOND
     1     1     2    2
     2     2     3   am
     3     2    21    1
     4     3     4    1
     5     3    29    1
     6     4     5    1
     7     4    30    1
     8     4    31    1
     9     5     6    1
    10     5    19    1
    11     5     7    1
    12     7     8    1
    13     7    19    1
    14     7     9    1
    15     9    10    1
    16     9    32    1
    17     9    33    1
    18    10    11   am
    19    10    18    1
    20    11    12    2
    21    11    13    1
    22    13    17    1
    23    13    14    1
    24    13    34    1
    25    14    15    1
    26    14    35    1
    27    14    36    1
    28    15    16    2
    29    15    37    1
    30    16    17    1
    31    16    38    1
    32    17    39    1
    33    17    40    1
    34    18    19    1
    35    18    41    1
    36    18    42    1
    37    19    20    1
    38    21    26    1
    39    21    28    1
    40    21    22    1
    41    22    23    1
    42    22    43    1
    43    22    44    1
    44    23    24    1
    45    23    45    1
    46    23    46    1
    47    24    25    1
    48    24    27    1
    49    24    47    1
    50    25    26    1
    51    25    48    1
    52    25    49    1
    53    26    50    1
    54    26    51    1
    55    27    28    1
    56    27    52    1
    57    27    53    1
    58    28    54    1
    59    28    55    1
@<TRIPOS>SUBSTRUCTURE
     1 ZINC001009116151        1 TEMP              0 ****  ****    0 ROOT


##########                                Name:    ZINC001386869844
##########                DOCK_Rotatable_Bonds:                   9
##########                         Heavy_Atoms:                  25
##########                    Molecular_Weight:             345.485
##########                DOCK_Rotatable_Bonds:                   9
##########                       Formal_Charge:          -0.0300003
##########                     HBond_Acceptors:                   5
##########                        HBond_Donors:                   2
##########                         Heavy_Atoms:                  25
##########                          Grid_Score:          -29.006437
##########                     Grid_vdw_energy:          -29.584635
##########                      Grid_es_energy:            0.578197
##########           Internal_energy_repulsive:           41.819782

@<TRIPOS>MOLECULE
ZINC001386869844
 56 58 1 0 0
SMALL
USER_CHARGES


@<TRIPOS>ATOM
      1 C1         -4.6335    0.9183   50.6814 C.3     1  ZINC001386869844    0.0600
      2 N2         -4.7812    2.2670   51.2341 N.am    1  ZINC001386869844   -0.6200
      3 C3         -6.0644    2.6898   51.8007 C.3     1  ZINC001386869844    0.1100
      4 C4         -6.8342    3.5100   50.7636 C.3     1  ZINC001386869844    0.1000
      5 N5         -8.1271    3.9134   51.3221 N.am    1  ZINC001386869844   -0.7300
      6 C6         -9.1801    4.1167   50.5056 C.2     1  ZINC001386869844    0.5200
      7 O7         -9.0558    3.9706   49.3081 O.2     1  ZINC001386869844   -0.5300
      8 C8        -10.5100    4.5317   51.0801 C.3     1  ZINC001386869844   -0.1300
      9 C9        -11.2968    5.3170   50.0289 C.3     1  ZINC001386869844   -0.0100
     10 C10       -12.6470    5.7384   50.6121 C.3     1  ZINC001386869844   -0.1500
     11 C11       -10.5051    6.5622   49.6243 C.3     1  ZINC001386869844   -0.1600
     12 C12       -11.5250    4.4358   48.7992 C.3     1  ZINC001386869844   -0.1500
     13 C13       -12.9566    4.3135   48.2735 C.3     1  ZINC001386869844   -0.1900
     14 C14       -12.3036    3.1337   48.9979 C.3     1  ZINC001386869844   -0.1800
     15 C15        -3.7368    3.1187   51.2213 C.2     1  ZINC001386869844    0.5900
     16 O16        -3.8596    4.2390   51.6803 O.2     1  ZINC001386869844   -0.5200
     17 C17        -2.4521    2.6952   50.6540 C.2     1  ZINC001386869844   -0.0600
     18 C18        -1.2220    2.7688   51.2764 C.2     1  ZINC001386869844   -0.0900
     19 C19        -0.2828    2.2621   50.3819 C.2     1  ZINC001386869844   -0.1700
     20 C20        -0.9369    1.8943   49.2482 C.2     1  ZINC001386869844    0.0500
     21 C21        -0.2548    1.3009   48.0384 C.3     1  ZINC001386869844   -0.0600
     22 C22         1.2490    1.5800   48.1449 C.3     1  ZINC001386869844   -0.1100
     23 C23         1.7511    1.1574   49.5282 C.3     1  ZINC001386869844   -0.1200
     24 C24         1.2051    2.1232   50.5869 C.3     1  ZINC001386869844   -0.0500
     25 N25        -2.2550    2.1462   49.4056 N.pl3   1  ZINC001386869844   -0.5400
     26 H26        -4.7812    0.9498   49.6020 H       1  ZINC001386869844    0.0600
     27 H27        -3.6337    0.5434   50.9006 H       1  ZINC001386869844    0.0800
     28 H28        -5.3755    0.2582   51.1306 H       1  ZINC001386869844    0.0900
     29 H29        -5.8870    3.2991   52.6869 H       1  ZINC001386869844    0.1000
     30 H30        -6.6478    1.8109   52.0748 H       1  ZINC001386869844    0.0900
     31 H31        -6.9967    2.9062   49.8708 H       1  ZINC001386869844    0.0700
     32 H32        -6.2585    4.3977   50.5022 H       1  ZINC001386869844    0.0700
     33 H33        -8.2255    4.0342   52.2795 H       1  ZINC001386869844    0.4000
     34 H34       -11.0740    3.6446   51.3683 H       1  ZINC001386869844    0.0900
     35 H35       -10.3474    5.1594   51.9562 H       1  ZINC001386869844    0.0900
     36 H36       -12.4845    6.3662   51.4881 H       1  ZINC001386869844    0.0800
     37 H37       -13.2076    6.2979   49.8631 H       1  ZINC001386869844    0.0500
     38 H38       -13.2112    4.8513   50.9004 H       1  ZINC001386869844    0.0500
     39 H39        -9.5431    6.2620   49.2089 H       1  ZINC001386869844    0.0500
     40 H40       -11.0656    7.1216   48.8753 H       1  ZINC001386869844    0.0500
     41 H41       -10.3425    7.1899   50.5004 H       1  ZINC001386869844    0.0800
     42 H42       -10.7179    4.4327   48.0667 H       1  ZINC001386869844    0.1000
     43 H43       -13.7359    4.8609   48.8037 H       1  ZINC001386869844    0.1000
     44 H44       -13.0913    4.2298   47.1950 H       1  ZINC001386869844    0.0900
     45 H45       -12.0090    2.2742   48.3956 H       1  ZINC001386869844    0.0900
     46 H46       -12.6532    2.9050   50.0045 H       1  ZINC001386869844    0.0900
     47 H47        -1.0255    3.1478   52.2685 H       1  ZINC001386869844    0.1500
     48 H48        -0.4274    0.2250   48.0107 H       1  ZINC001386869844    0.0800
     49 H49        -0.6500    1.7601   47.1322 H       1  ZINC001386869844    0.0800
     50 H50         1.7785    1.0148   47.3780 H       1  ZINC001386869844    0.0700
     51 H51         1.4317    2.6450   48.0021 H       1  ZINC001386869844    0.0700
     52 H52         1.4069    0.1464   49.7465 H       1  ZINC001386869844    0.0600
     53 H53         2.8408    1.1811   49.5421 H       1  ZINC001386869844    0.0700
     54 H54         1.6833    3.0965   50.4774 H       1  ZINC001386869844    0.0700
     55 H55         1.4030    1.7264   51.5827 H       1  ZINC001386869844    0.0700
     56 H56        -2.9468    1.9717   48.7485 H       1  ZINC001386869844    0.4200
@<TRIPOS>BOND
     1     1     2    1
     2     1    26    1
     3     1    27    1
     4     1    28    1
     5     2     3    1
     6     2    15   am
     7     3     4    1
     8     3    29    1
     9     3    30    1
    10     4     5    1
    11     4    31    1
    12     4    32    1
    13     5     6   am
    14     5    33    1
    15     6     7    2
    16     6     8    1
    17     8     9    1
    18     8    34    1
    19     8    35    1
    20     9    10    1
    21     9    11    1
    22     9    12    1
    23    10    36    1
    24    10    37    1
    25    10    38    1
    26    11    39    1
    27    11    40    1
    28    11    41    1
    29    12    14    1
    30    12    13    1
    31    12    42    1
    32    13    14    1
    33    13    43    1
    34    13    44    1
    35    14    45    1
    36    14    46    1
    37    15    16    2
    38    15    17    1
    39    17    25    1
    40    17    18    2
    41    18    19    1
    42    18    47    1
    43    19    24    1
    44    19    20    2
    45    20    21    1
    46    20    25    1
    47    21    22    1
    48    21    48    1
    49    21    49    1
    50    22    23    1
    51    22    50    1
    52    22    51    1
    53    23    24    1
    54    23    52    1
    55    23    53    1
    56    24    54    1
    57    24    55    1
    58    25    56    1
@<TRIPOS>SUBSTRUCTURE
     1 ZINC001386869844        1 TEMP              0 ****  ****    0 ROOT


##########                                Name:    ZINC000342525234
##########                DOCK_Rotatable_Bonds:                   6
##########                         Heavy_Atoms:                  25
##########                    Molecular_Weight:             333.349
##########                DOCK_Rotatable_Bonds:                   6
##########                       Formal_Charge:           0.0500003
##########                     HBond_Acceptors:                   7
##########                        HBond_Donors:                   2
##########                         Heavy_Atoms:                  25
##########                          Grid_Score:          -28.990049
##########                     Grid_vdw_energy:          -29.704380
##########                      Grid_es_energy:            0.714332
##########           Internal_energy_repulsive:            3.806665

@<TRIPOS>MOLECULE
ZINC000342525234
 40 43 1 0 0
SMALL
USER_CHARGES


@<TRIPOS>ATOM
      1 O1         -6.8708   -0.3526   52.1137 O.2     1  <0>        -0.5100
      2 C2         -7.2233    0.7176   52.5680 C.2     1  <0>         0.6000
      3 N3         -6.5229    1.8337   52.2846 N.am    1  <0>        -0.7100
      4 C4         -5.3330    1.7553   51.4336 C.3     1  <0>         0.1200
      5 C5         -4.5945    3.0950   51.4648 C.3     1  <0>        -0.0900
      6 C6         -3.1472    2.8792   51.1048 C.ar    1  <0>        -0.0400
      7 C7         -2.8439    2.2164   49.9609 C.ar    1  <0>        -0.1000
      8 C8         -1.4917    2.0084   49.6134 C.ar    1  <0>         0.1100
      9 N9         -0.8716    1.4220   48.6056 N.2     1  <0>        -0.3100
     10 N10         0.5105    1.5263   48.7994 N.pl3   1  <0>        -0.4200
     11 C11         0.7641    2.1839   49.9389 C.2     1  <0>         0.0900
     12 C12        -0.4471    2.5226   50.5128 C.ar    1  <0>        -0.2100
     13 C13        -0.8361    3.2030   51.6864 C.ar    1  <0>        -0.0400
     14 C14        -2.1550    3.3722   51.9553 C.ar    1  <0>        -0.1500
     15 C15        -8.4282    0.7970   53.4297 C.2     1  <0>        -0.0200
     16 N16        -9.0244    1.8864   53.8487 N.2     1  <0>        -0.3200
     17 O17        -9.9850    1.6347   54.5378 O.3     1  <0>         0.1400
     18 C18       -10.1656    0.3094   54.6762 C.2     1  <0>         0.0100
     19 C19       -11.2342   -0.3639   55.4455 C.ar    1  <0>         0.0200
     20 C20       -12.2031    0.3776   56.1314 C.ar    1  <0>        -0.1400
     21 C21       -13.1822   -0.2915   56.8363 C.ar    1  <0>         0.1100
     22 N22       -13.2121   -1.6100   56.8693 N.ar    1  <0>        -0.4800
     23 C23       -12.3185   -2.3467   56.2373 C.ar    1  <0>         0.1100
     24 C24       -11.3081   -1.7603   55.5035 C.ar    1  <0>        -0.1500
     25 C25        -9.1692   -0.2919   53.9597 C.2     1  <0>        -0.1500
     26 H26        -6.8066    2.6887   52.6441 H       1  <0>         0.4100
     27 H27        -4.6743    0.9687   51.8016 H       1  <0>         0.0800
     28 H28        -5.6324    1.5293   50.4103 H       1  <0>         0.0800
     29 H29        -5.0496    3.7775   50.7472 H       1  <0>         0.0900
     30 H30        -4.6602    3.5228   52.4653 H       1  <0>         0.0800
     31 H31        -3.6321    1.8498   49.3201 H       1  <0>         0.1300
     32 H32         1.1851    1.1743   48.1978 H       1  <0>         0.4500
     33 H33         1.7418    2.4092   50.3385 H       1  <0>         0.1900
     34 H34        -0.0890    3.5904   52.3634 H       1  <0>         0.1300
     35 H35        -2.4454    3.8942   52.8551 H       1  <0>         0.1200
     36 H36       -12.1843    1.4572   56.1093 H       1  <0>         0.1400
     37 H37       -13.9343    0.2717   57.3688 H       1  <0>         0.1700
     38 H38       -12.3814   -3.4234   56.2918 H       1  <0>         0.1700
     39 H39       -10.5800   -2.3696   54.9886 H       1  <0>         0.1500
     40 H40        -8.9846   -1.3483   53.8319 H       1  <0>         0.1900
@<TRIPOS>BOND
     1     1     2    2
     2     2     3   am
     3     2    15    1
     4     3     4    1
     5     3    26    1
     6     4     5    1
     7     4    27    1
     8     4    28    1
     9     5     6    1
    10     5    29    1
    11     5    30    1
    12     6    14   ar
    13     6     7   ar
    14     7     8   ar
    15     7    31    1
    16     8    12   ar
    17     8     9    2
    18     9    10    1
    19    10    11    1
    20    10    32    1
    21    11    12    2
    22    11    33    1
    23    12    13   ar
    24    13    14   ar
    25    13    34    1
    26    14    35    1
    27    15    25    1
    28    15    16    2
    29    16    17    1
    30    17    18    1
    31    18    19    1
    32    18    25    2
    33    19    24   ar
    34    19    20   ar
    35    20    21   ar
    36    20    36    1
    37    21    22   ar
    38    21    37    1
    39    22    23   ar
    40    23    24   ar
    41    23    38    1
    42    24    39    1
    43    25    40    1
@<TRIPOS>SUBSTRUCTURE
     1 <0>         1 TEMP              0 ****  ****    0 ROOT


##########                                Name:    ZINC000854704989
##########                DOCK_Rotatable_Bonds:                   5
##########                         Heavy_Atoms:                  22
##########                    Molecular_Weight:             365.227
##########                DOCK_Rotatable_Bonds:                   5
##########                       Formal_Charge:        -1.78814e-07
##########                     HBond_Acceptors:                   5
##########                        HBond_Donors:                   1
##########                         Heavy_Atoms:                  22
##########                          Grid_Score:          -28.988470
##########                     Grid_vdw_energy:          -28.775728
##########                      Grid_es_energy:           -0.212743
##########           Internal_energy_repulsive:            6.066639

@<TRIPOS>MOLECULE
ZINC000854704989
 39 41 1 0 0
SMALL
USER_CHARGES


@<TRIPOS>ATOM
      1 O1         -2.9961    2.0639   49.9191 O.2     1  ZINC000854704989   -0.5300
      2 C2         -3.2036    2.4074   51.0665 C.2     1  ZINC000854704989    0.5700
      3 N3         -4.4282    2.2483   51.6065 N.am    1  ZINC000854704989   -0.7300
      4 C4         -5.5108    1.6673   50.8086 C.3     1  ZINC000854704989    0.2000
      5 C5         -6.5155    1.0158   51.7237 C.2     1  ZINC000854704989   -0.0500
      6 C6         -7.6070    1.5981   52.2744 C.2     1  ZINC000854704989   -0.1700
      7 C7         -8.1982    0.5633   53.0369 C.2     1  ZINC000854704989    0.0000
      8 Br8        -9.7721    0.6807   54.0785 Br      1  ZINC000854704989    0.0600
      9 N9         -7.4434   -0.4865   52.8786 N.2     1  ZINC000854704989   -0.3200
     10 O10        -6.5078   -0.2556   52.1481 O.3     1  ZINC000854704989    0.1300
     11 C11        -2.1111    2.9938   51.8718 C.ar    1  ZINC000854704989   -0.1300
     12 C12        -0.8744    3.2637   51.2843 C.ar    1  ZINC000854704989   -0.0900
     13 C13         0.1407    3.8113   52.0413 C.ar    1  ZINC000854704989   -0.1200
     14 C14        -0.0650    4.0924   53.3801 C.ar    1  ZINC000854704989   -0.0900
     15 C15        -1.2890    3.8271   53.9689 C.ar    1  ZINC000854704989   -0.0800
     16 C16        -1.5042    4.1367   55.4280 C.3     1  ZINC000854704989   -0.0800
     17 H17        -0.6042    4.5928   55.8401 H       1  ZINC000854704989    0.0900
     18 C18        -1.8151    2.8422   56.1855 C.3     1  ZINC000854704989   -0.1100
     19 C19        -2.1083    3.1789   57.6508 C.3     1  ZINC000854704989   -0.1600
     20 C20        -3.2637    4.1812   57.7146 C.3     1  ZINC000854704989    0.0600
     21 O21        -2.9217    5.3487   56.9649 O.3     1  ZINC000854704989   -0.3800
     22 C22        -2.6820    5.1033   55.5776 C.3     1  ZINC000854704989    0.0700
     23 C23        -2.3140    3.2851   53.2219 C.ar    1  ZINC000854704989   -0.0500
     24 H24        -4.5928    2.5188   52.5234 H       1  ZINC000854704989    0.4000
     25 H25        -5.9998    2.4530   50.2327 H       1  ZINC000854704989    0.1100
     26 H26        -5.1006    0.9205   50.1289 H       1  ZINC000854704989    0.1000
     27 H27        -7.9473    2.6165   52.1587 H       1  ZINC000854704989    0.1900
     28 H28        -0.7123    3.0440   50.2393 H       1  ZINC000854704989    0.1200
     29 H29         1.0982    4.0208   51.5878 H       1  ZINC000854704989    0.1300
     30 H30         0.7331    4.5205   53.9685 H       1  ZINC000854704989    0.1300
     31 H31        -2.6856    2.3597   55.7411 H       1  ZINC000854704989    0.0700
     32 H32        -0.9572    2.1721   56.1300 H       1  ZINC000854704989    0.0700
     33 H33        -2.3846    2.2700   58.1852 H       1  ZINC000854704989    0.0800
     34 H34        -1.2210    3.6162   58.1086 H       1  ZINC000854704989    0.0700
     35 H35        -4.1613    3.7286   57.2933 H       1  ZINC000854704989    0.0500
     36 H36        -3.4486    4.4572   58.7528 H       1  ZINC000854704989    0.1000
     37 H37        -2.4486    6.0431   55.0773 H       1  ZINC000854704989    0.1000
     38 H38        -3.5715    4.6626   55.1273 H       1  ZINC000854704989    0.0500
     39 H39        -3.2690    3.0789   53.6825 H       1  ZINC000854704989    0.1400
@<TRIPOS>BOND
     1     1     2    2
     2     2     3   am
     3     2    11    1
     4     3     4    1
     5     3    24    1
     6     4     5    1
     7     4    25    1
     8     4    26    1
     9     5    10    1
    10     5     6    2
    11     6     7    1
    12     6    27    1
    13     7     8    1
    14     7     9    2
    15     9    10    1
    16    11    23   ar
    17    11    12   ar
    18    12    13   ar
    19    12    28    1
    20    13    14   ar
    21    13    29    1
    22    14    15   ar
    23    14    30    1
    24    15    16    1
    25    15    23   ar
    26    16    17    1
    27    16    22    1
    28    16    18    1
    29    18    19    1
    30    18    31    1
    31    18    32    1
    32    19    20    1
    33    19    33    1
    34    19    34    1
    35    20    21    1
    36    20    35    1
    37    20    36    1
    38    21    22    1
    39    22    37    1
    40    22    38    1
    41    23    39    1
@<TRIPOS>SUBSTRUCTURE
     1 ZINC000854704989        1 TEMP              0 ****  ****    0 ROOT


##########                                Name:    ZINC000742270208
##########                DOCK_Rotatable_Bonds:                   5
##########                         Heavy_Atoms:                  25
##########                    Molecular_Weight:             376.328
##########                DOCK_Rotatable_Bonds:                   5
##########                       Formal_Charge:                0.02
##########                     HBond_Acceptors:                   9
##########                        HBond_Donors:                   0
##########                         Heavy_Atoms:                  25
##########                          Grid_Score:          -28.963232
##########                     Grid_vdw_energy:          -28.854603
##########                      Grid_es_energy:           -0.108629
##########           Internal_energy_repulsive:           15.759537

@<TRIPOS>MOLECULE
ZINC000742270208
 37 38 1 0 0
SMALL
USER_CHARGES


@<TRIPOS>ATOM
      1 C1          2.6629    3.4158   49.6595 C.3     1  ZINC000742270208   -0.1400
      2 C2          1.4411    2.5463   49.9635 C.3     1  ZINC000742270208   -0.1400
      3 C3          1.9021    1.1772   50.4675 C.3     1  ZINC000742270208   -0.1400
      4 C4          0.6001    3.2138   51.0209 C.2     1  ZINC000742270208    0.4000
      5 O5          1.1231    3.9250   51.8520 O.2     1  ZINC000742270208   -0.4300
      6 C6         -0.8561    3.0025   51.0447 C.ar    1  ZINC000742270208   -0.1000
      7 C7         -1.5087    2.4784   49.9243 C.ar    1  ZINC000742270208   -0.0900
      8 C8         -2.8735    2.2834   49.9544 C.ar    1  ZINC000742270208   -0.0200
      9 C9         -3.5972    2.6052   51.0894 C.ar    1  ZINC000742270208   -0.6800
     10 S10        -5.3407    2.3521   51.1179 S.o2    1  ZINC000742270208    2.6600
     11 O11        -5.9348    3.6372   50.9949 O.2     1  ZINC000742270208   -0.9300
     12 O12        -5.6060    1.2840   50.2190 O.2     1  ZINC000742270208   -0.9000
     13 O13        -5.6996    1.8440   52.5070 O.3     1  ZINC000742270208   -0.6400
     14 C14        -7.0313    1.6417   52.6951 C.ar    1  ZINC000742270208    0.0500
     15 C15        -7.5977    0.4123   52.3880 C.ar    1  ZINC000742270208    0.0900
     16 F16        -6.8264   -0.5847   51.9017 F       1  ZINC000742270208   -0.0900
     17 C17        -8.9543    0.2081   52.5808 C.ar    1  ZINC000742270208    0.1100
     18 F18        -9.5060   -0.9884   52.2820 F       1  ZINC000742270208   -0.1000
     19 C19        -9.7449    1.2291   53.0799 C.ar    1  ZINC000742270208   -0.1100
     20 C20        -9.1819    2.4561   53.3865 C.ar    1  ZINC000742270208    0.1200
     21 F21        -9.9555    3.4510   53.8734 F       1  ZINC000742270208   -0.1000
     22 C22        -7.8247    2.6627   53.2000 C.ar    1  ZINC000742270208    0.1200
     23 F23        -7.2758    3.8601   53.4998 F       1  ZINC000742270208   -0.0900
     24 C24        -2.9587    3.1241   52.2022 C.ar    1  ZINC000742270208   -0.0300
     25 C25        -1.5936    3.3192   52.1899 C.ar    1  ZINC000742270208   -0.0800
     26 H26         3.2713    2.9330   48.8947 H       1  ZINC000742270208    0.0700
     27 H27         2.3345    4.3910   49.3005 H       1  ZINC000742270208    0.0600
     28 H28         3.2534    3.5426   50.5669 H       1  ZINC000742270208    0.0600
     29 H29         0.8507    2.4194   49.0561 H       1  ZINC000742270208    0.1000
     30 H30         2.4926    1.3041   51.3749 H       1  ZINC000742270208    0.0700
     31 H31         1.0318    0.5578   50.6841 H       1  ZINC000742270208    0.0600
     32 H32         2.5105    0.6944   49.7027 H       1  ZINC000742270208    0.0700
     33 H33        -0.9454    2.2276   49.0376 H       1  ZINC000742270208    0.1500
     34 H34        -3.3789    1.8788   49.0900 H       1  ZINC000742270208    0.1500
     35 H35       -10.8022    1.0683   53.2300 H       1  ZINC000742270208    0.1900
     36 H36        -3.5303    3.3728   53.0841 H       1  ZINC000742270208    0.1500
     37 H37        -1.0967    3.7243   53.0591 H       1  ZINC000742270208    0.1500
@<TRIPOS>BOND
     1     1     2    1
     2     1    26    1
     3     1    27    1
     4     1    28    1
     5     2     3    1
     6     2     4    1
     7     2    29    1
     8     3    30    1
     9     3    31    1
    10     3    32    1
    11     4     5    2
    12     4     6    1
    13     6    25   ar
    14     6     7   ar
    15     7     8   ar
    16     7    33    1
    17     8     9   ar
    18     8    34    1
    19     9    10    1
    20     9    24   ar
    21    10    11    2
    22    10    12    2
    23    10    13    1
    24    13    14    1
    25    14    22   ar
    26    14    15   ar
    27    15    16    1
    28    15    17   ar
    29    17    18    1
    30    17    19   ar
    31    19    20   ar
    32    19    35    1
    33    20    21    1
    34    20    22   ar
    35    22    23    1
    36    24    25   ar
    37    24    36    1
    38    25    37    1
@<TRIPOS>SUBSTRUCTURE
     1 ZINC000742270208        1 TEMP              0 ****  ****    0 ROOT


##########                                Name:    ZINC000986832075
##########                DOCK_Rotatable_Bonds:                   7
##########                         Heavy_Atoms:                  25
##########                    Molecular_Weight:             347.433
##########                DOCK_Rotatable_Bonds:                   7
##########                       Formal_Charge:          -0.0200006
##########                     HBond_Acceptors:                   6
##########                        HBond_Donors:                   1
##########                         Heavy_Atoms:                  25
##########                          Grid_Score:          -28.961073
##########                     Grid_vdw_energy:          -28.105440
##########                      Grid_es_energy:           -0.855632
##########           Internal_energy_repulsive:           37.439632

@<TRIPOS>MOLECULE
ZINC000986832075
 51 53 1 0 0
SMALL
USER_CHARGES


@<TRIPOS>ATOM
      1 C1         -8.2226    4.7921   52.9232 C.3     1  ZINC000986832075   -0.1700
      2 C2         -7.6389    3.4664   53.4157 C.3     1  ZINC000986832075    0.1500
      3 H3         -8.1409    2.6395   52.9135 H       1  ZINC000986832075    0.0900
      4 N4         -6.2057    3.4222   53.1152 N.am    1  ZINC000986832075   -0.7200
      5 C5         -5.7676    2.7819   52.0132 C.2     1  ZINC000986832075    0.5600
      6 O6         -6.5615    2.2423   51.2679 O.2     1  ZINC000986832075   -0.5100
      7 C7         -4.3195    2.7359   51.7107 C.ar    1  ZINC000986832075   -0.1300
      8 C8         -3.3741    3.1488   52.6550 C.ar    1  ZINC000986832075   -0.1100
      9 C9         -2.0331    3.0891   52.3310 C.ar    1  ZINC000986832075    0.0900
     10 N10        -1.6387    2.6515   51.1516 N.ar    1  ZINC000986832075   -0.4400
     11 C11        -2.4932    2.2526   50.2315 C.ar    1  ZINC000986832075    0.0700
     12 C12        -3.8569    2.2721   50.4724 C.ar    1  ZINC000986832075    0.1100
     13 F13        -4.7273    1.8615   49.5243 F       1  ZINC000986832075   -0.1000
     14 C14        -7.8471    3.3474   54.9268 C.3     1  ZINC000986832075   -0.1000
     15 C15        -9.1335    2.5662   55.2042 C.3     1  ZINC000986832075   -0.1300
     16 C16        -9.3570    2.4788   56.7172 C.3     1  ZINC000986832075    0.1100
     17 N17        -8.1564    1.9051   57.3401 N.am    1  ZINC000986832075   -0.6100
     18 C18        -8.2488    0.8298   58.1474 C.2     1  ZINC000986832075    0.5200
     19 O19        -7.2504    0.3655   58.6556 O.2     1  ZINC000986832075   -0.5300
     20 C20        -9.5929    0.2046   58.4186 C.3     1  ZINC000986832075   -0.0800
     21 H21       -10.3225    0.9872   58.6264 H       1  ZINC000986832075    0.0900
     22 C22        -9.4871   -0.7279   59.6271 C.3     1  ZINC000986832075   -0.1400
     23 C23       -10.0392   -0.5966   57.1939 C.3     1  ZINC000986832075   -0.1400
     24 C24       -10.1509   -2.1150   57.3453 C.3     1  ZINC000986832075   -0.1800
     25 C25       -11.4165   -1.2607   57.2477 C.3     1  ZINC000986832075   -0.1700
     26 C26        -6.8531    2.5255   57.0659 C.3     1  ZINC000986832075    0.1000
     27 C27        -6.6578    2.6123   55.5490 C.3     1  ZINC000986832075   -0.1300
     28 H28        -8.0743    4.8768   51.8466 H       1  ZINC000986832075    0.0600
     29 H29        -9.2890    4.8249   53.1468 H       1  ZINC000986832075    0.0700
     30 H30        -7.7206    5.6191   53.4254 H       1  ZINC000986832075    0.0600
     31 H31        -5.5720    3.8540   53.7095 H       1  ZINC000986832075    0.4000
     32 H32        -3.6883    3.5092   53.6234 H       1  ZINC000986832075    0.1500
     33 H33        -1.2964    3.4059   53.0545 H       1  ZINC000986832075    0.1700
     34 H34        -2.1251    1.9019   49.2786 H       1  ZINC000986832075    0.1800
     35 H35        -7.9264    4.3435   55.3620 H       1  ZINC000986832075    0.0800
     36 H36        -9.9770    3.0780   54.7408 H       1  ZINC000986832075    0.0700
     37 H37        -9.0454    1.5615   54.7908 H       1  ZINC000986832075    0.0800
     38 H38        -9.5355    3.4764   57.1184 H       1  ZINC000986832075    0.0700
     39 H39       -10.2162    1.8407   56.9235 H       1  ZINC000986832075    0.0900
     40 H40        -8.6954   -1.4571   59.4551 H       1  ZINC000986832075    0.0600
     41 H41        -9.2557   -0.1436   60.5177 H       1  ZINC000986832075    0.0600
     42 H42       -10.4349   -1.2473   59.7693 H       1  ZINC000986832075    0.0700
     43 H43        -9.7042   -0.2098   56.2315 H       1  ZINC000986832075    0.1100
     44 H44        -9.8892   -2.7274   56.4824 H       1  ZINC000986832075    0.1000
     45 H45        -9.9064   -2.5433   58.3174 H       1  ZINC000986832075    0.0900
     46 H46       -12.0046   -1.1270   58.1556 H       1  ZINC000986832075    0.0900
     47 H47       -11.9874   -1.3112   56.3206 H       1  ZINC000986832075    0.1000
     48 H48        -6.8274    3.5269   57.4955 H       1  ZINC000986832075    0.0700
     49 H49        -6.0601    1.9180   57.5023 H       1  ZINC000986832075    0.0900
     50 H50        -6.5929    1.6072   55.1324 H       1  ZINC000986832075    0.0800
     51 H51        -5.7391    3.1569   55.3311 H       1  ZINC000986832075    0.0800
@<TRIPOS>BOND
     1     1     2    1
     2     1    28    1
     3     1    29    1
     4     1    30    1
     5     2     3    1
     6     2     4    1
     7     2    14    1
     8     4     5   am
     9     4    31    1
    10     5     6    2
    11     5     7    1
    12     7    12   ar
    13     7     8   ar
    14     8     9   ar
    15     8    32    1
    16     9    10   ar
    17     9    33    1
    18    10    11   ar
    19    11    12   ar
    20    11    34    1
    21    12    13    1
    22    14    27    1
    23    14    15    1
    24    14    35    1
    25    15    16    1
    26    15    36    1
    27    15    37    1
    28    16    17    1
    29    16    38    1
    30    16    39    1
    31    17    18   am
    32    17    26    1
    33    18    19    2
    34    18    20    1
    35    20    21    1
    36    20    22    1
    37    20    23    1
    38    22    40    1
    39    22    41    1
    40    22    42    1
    41    23    25    1
    42    23    24    1
    43    23    43    1
    44    24    25    1
    45    24    44    1
    46    24    45    1
    47    25    46    1
    48    25    47    1
    49    26    27    1
    50    26    48    1
    51    26    49    1
    52    27    50    1
    53    27    51    1
@<TRIPOS>SUBSTRUCTURE
     1 ZINC000986832075        1 TEMP              0 ****  ****    0 ROOT


##########                                Name:    ZINC000530457945
##########                DOCK_Rotatable_Bonds:                   4
##########                         Heavy_Atoms:                  25
##########                    Molecular_Weight:             355.827
##########                DOCK_Rotatable_Bonds:                   4
##########                       Formal_Charge:           0.0199997
##########                     HBond_Acceptors:                   7
##########                        HBond_Donors:                   1
##########                         Heavy_Atoms:                  25
##########                          Grid_Score:          -28.955584
##########                     Grid_vdw_energy:          -28.643574
##########                      Grid_es_energy:           -0.312010
##########           Internal_energy_repulsive:           31.438639

@<TRIPOS>MOLECULE
ZINC000530457945
 43 46 1 0 0
SMALL
USER_CHARGES


@<TRIPOS>ATOM
      1 C1        -13.2278   -0.7608   57.2813 C.3     1  ZINC000530457945   -0.1700
      2 C2        -11.8486   -1.2569   57.7200 C.3     1  ZINC000530457945    0.0900
      3 H3        -11.2677   -0.4278   58.1239 H       1  ZINC000530457945    0.1100
      4 C4        -11.1082   -1.8802   56.5179 C.3     1  ZINC000530457945   -0.1200
      5 H5        -11.8164   -2.2100   55.7579 H       1  ZINC000530457945    0.1100
      6 C6        -10.1209   -0.9022   55.9350 C.2     1  ZINC000530457945    0.5300
      7 O7         -9.4376   -0.2201   56.6689 O.2     1  ZINC000530457945   -0.4700
      8 N8         -9.9974   -0.7856   54.5979 N.am    1  ZINC000530457945   -0.6200
      9 C9         -9.0836    0.1220   54.0575 C.2     1  ZINC000530457945    0.4800
     10 N10        -8.2519   -0.1339   53.0682 N.2     1  ZINC000530457945   -0.3000
     11 N11        -7.5162    1.0369   52.8357 N.pl3   1  ZINC000530457945   -0.2800
     12 C12        -6.5339    1.3557   51.9522 C.2     1  ZINC000530457945    0.1400
     13 C13        -5.9868    2.5934   51.9483 C.2     1  ZINC000530457945   -0.0800
     14 Cl14       -4.7330    2.9822   50.8123 Cl      1  ZINC000530457945   -0.0200
     15 C15        -6.4306    3.5635   52.8597 C.2     1  ZINC000530457945   -0.0500
     16 C16        -7.4151    3.2517   53.7481 C.2     1  ZINC000530457945   -0.0900
     17 C17        -7.9695    1.9595   53.7351 C.2     1  ZINC000530457945    0.3000
     18 N18        -8.9224    1.3791   54.4581 N.2     1  ZINC000530457945   -0.5500
     19 C19       -10.3764   -3.0937   57.1492 C.3     1  ZINC000530457945   -0.1200
     20 C20       -11.4035   -3.5612   58.2104 C.3     1  ZINC000530457945    0.0400
     21 N21       -11.9957   -2.3106   58.7407 N.3     1  ZINC000530457945   -0.4900
     22 C22       -13.3383   -2.4964   59.0782 C.ar    1  ZINC000530457945    0.1000
     23 C23       -13.8399   -1.9621   60.2582 C.ar    1  ZINC000530457945   -0.1600
     24 C24       -15.1680   -2.1473   60.5885 C.ar    1  ZINC000530457945   -0.1100
     25 C25       -15.9981   -2.8642   59.7463 C.ar    1  ZINC000530457945   -0.1300
     26 C26       -15.5020   -3.3975   58.5709 C.ar    1  ZINC000530457945   -0.1100
     27 C27       -14.1763   -3.2111   58.2316 C.ar    1  ZINC000530457945   -0.1000
     28 H28       -13.7922   -0.4366   58.1556 H       1  ZINC000530457945    0.0700
     29 H29       -13.1110    0.0765   56.5933 H       1  ZINC000530457945    0.0600
     30 H30       -13.7629   -1.5690   56.7826 H       1  ZINC000530457945    0.0600
     31 H31       -10.5431   -1.3320   54.0109 H       1  ZINC000530457945    0.4300
     32 H32        -6.1867    0.6147   51.2474 H       1  ZINC000530457945    0.1800
     33 H33        -5.9940    4.5513   52.8572 H       1  ZINC000530457945    0.1600
     34 H34        -7.7657    3.9889   54.4552 H       1  ZINC000530457945    0.1700
     35 H35       -10.1997   -3.8724   56.4073 H       1  ZINC000530457945    0.0900
     36 H36        -9.4425   -2.7852   57.6191 H       1  ZINC000530457945    0.0900
     37 H37       -12.1723   -4.1801   57.7476 H       1  ZINC000530457945    0.0700
     38 H38       -10.9024   -4.1099   59.0077 H       1  ZINC000530457945    0.0900
     39 H39       -13.1921   -1.4027   60.9167 H       1  ZINC000530457945    0.1200
     40 H40       -15.5588   -1.7321   61.5058 H       1  ZINC000530457945    0.1200
     41 H41       -17.0362   -3.0082   60.0073 H       1  ZINC000530457945    0.1200
     42 H42       -16.1530   -3.9569   57.9153 H       1  ZINC000530457945    0.1300
     43 H43       -13.7895   -3.6277   57.3134 H       1  ZINC000530457945    0.1300
@<TRIPOS>BOND
     1     1     2    1
     2     1    28    1
     3     1    29    1
     4     1    30    1
     5     2     3    1
     6     2    21    1
     7     2     4    1
     8     4     5    1
     9     4     6    1
    10     4    19    1
    11     6     7    2
    12     6     8   am
    13     8     9    1
    14     8    31    1
    15     9    18    1
    16     9    10    2
    17    10    11    1
    18    11    17    1
    19    11    12    1
    20    12    13    2
    21    12    32    1
    22    13    14    1
    23    13    15    1
    24    15    16    2
    25    15    33    1
    26    16    17    1
    27    16    34    1
    28    17    18    2
    29    19    20    1
    30    19    35    1
    31    19    36    1
    32    20    21    1
    33    20    37    1
    34    20    38    1
    35    21    22    1
    36    22    27   ar
    37    22    23   ar
    38    23    24   ar
    39    23    39    1
    40    24    25   ar
    41    24    40    1
    42    25    26   ar
    43    25    41    1
    44    26    27   ar
    45    26    42    1
    46    27    43    1
@<TRIPOS>SUBSTRUCTURE
     1 ZINC000530457945        1 TEMP              0 ****  ****    0 ROOT


##########                                Name:    ZINC001625935330
##########                DOCK_Rotatable_Bonds:                   5
##########                         Heavy_Atoms:                  25
##########                    Molecular_Weight:             327.385
##########                DOCK_Rotatable_Bonds:                   5
##########                       Formal_Charge:           0.0199995
##########                     HBond_Acceptors:                   4
##########                        HBond_Donors:                   1
##########                         Heavy_Atoms:                  25
##########                          Grid_Score:          -28.940708
##########                     Grid_vdw_energy:          -26.757465
##########                      Grid_es_energy:           -2.183242
##########           Internal_energy_repulsive:            5.432433

@<TRIPOS>MOLECULE
ZINC001625935330
 42 44 1 0 0
SMALL
USER_CHARGES


@<TRIPOS>ATOM
      1 C1          2.7448    4.4366   50.8487 C.3     1  ZINC001625935330   -0.1600
      2 C2          2.5810    2.9345   51.0892 C.3     1  ZINC001625935330    0.1800
      3 H3          3.5313    2.4319   50.9085 H       1  ZINC001625935330    0.1000
      4 N4          2.1626    2.7045   52.4742 N.am    1  ZINC001625935330   -0.7100
      5 C5          3.0884    2.5238   53.4367 C.2     1  ZINC001625935330    0.5800
      6 O6          4.2704    2.5501   53.1557 O.2     1  ZINC001625935330   -0.5300
      7 C7          2.6653    2.2929   54.8379 C.ar    1  ZINC001625935330    0.0800
      8 C8          1.4076    2.7144   55.2555 C.ar    1  ZINC001625935330   -0.1000
      9 C9          1.0244    2.4881   56.5804 C.ar    1  ZINC001625935330    0.0000
     10 C10        -0.3075    2.9193   57.0719 C.ar    1  ZINC001625935330   -0.0600
     11 C11        -0.4061    3.7557   58.1820 C.ar    1  ZINC001625935330   -0.1000
     12 C12        -1.6476    4.1542   58.6345 C.ar    1  ZINC001625935330   -0.1200
     13 C13        -2.7927    3.7247   57.9882 C.ar    1  ZINC001625935330   -0.1100
     14 C14        -2.7007    2.8943   56.8857 C.ar    1  ZINC001625935330   -0.1200
     15 C15        -1.4642    2.4940   56.4214 C.ar    1  ZINC001625935330   -0.1000
     16 C16         1.9281    1.8451   57.4296 C.ar    1  ZINC001625935330   -0.1400
     17 C17         3.1608    1.4573   56.9350 C.ar    1  ZINC001625935330    0.1100
     18 N18         3.4889    1.6807   55.6809 N.ar    1  ZINC001625935330   -0.4600
     19 C19         1.5365    2.3865   50.1513 C.ar    1  ZINC001625935330   -0.0900
     20 C20         1.9223    1.7280   48.9975 C.ar    1  ZINC001625935330   -0.0800
     21 C21         0.9697    1.2217   48.1308 C.ar    1  ZINC001625935330   -0.1100
     22 C22        -0.3722    1.3702   48.4127 C.ar    1  ZINC001625935330   -0.0700
     23 C23        -0.7687    2.0334   49.5760 C.ar    1  ZINC001625935330   -0.0200
     24 C24        -2.1602    2.1913   49.8752 C.1     1  ZINC001625935330    0.2500
     25 N25        -3.2641    2.3165   50.1125 N.1     1  ZINC001625935330   -0.4100
     26 C26         0.1977    2.5376   50.4484 C.ar    1  ZINC001625935330   -0.0600
     27 H27         3.0562    4.6077   49.8182 H       1  ZINC001625935330    0.0700
     28 H28         1.7946    4.9392   51.0294 H       1  ZINC001625935330    0.0600
     29 H29         3.5002    4.8330   51.5271 H       1  ZINC001625935330    0.0700
     30 H30         1.2192    2.6824   52.6985 H       1  ZINC001625935330    0.4100
     31 H31         0.7380    3.2087   54.5673 H       1  ZINC001625935330    0.1500
     32 H32         0.4873    4.0913   58.6876 H       1  ZINC001625935330    0.1300
     33 H33        -1.7253    4.8021   59.4950 H       1  ZINC001625935330    0.1300
     34 H34        -3.7623    4.0386   58.3459 H       1  ZINC001625935330    0.1300
     35 H35        -3.5980    2.5618   56.3851 H       1  ZINC001625935330    0.1300
     36 H36        -1.3935    1.8460   55.5603 H       1  ZINC001625935330    0.1300
     37 H37         1.6679    1.6532   58.4601 H       1  ZINC001625935330    0.1400
     38 H38         3.8630    0.9602   57.5879 H       1  ZINC001625935330    0.1700
     39 H39         2.9717    1.6089   48.7720 H       1  ZINC001625935330    0.1300
     40 H40         1.2778    0.7093   47.2314 H       1  ZINC001625935330    0.1400
     41 H41        -1.1146    0.9749   47.7353 H       1  ZINC001625935330    0.1400
     42 H42        -0.1022    3.0515   51.3497 H       1  ZINC001625935330    0.1400
@<TRIPOS>BOND
     1     1     2    1
     2     1    27    1
     3     1    28    1
     4     1    29    1
     5     2     3    1
     6     2     4    1
     7     2    19    1
     8     4     5   am
     9     4    30    1
    10     5     6    2
    11     5     7    1
    12     7    18   ar
    13     7     8   ar
    14     8     9   ar
    15     8    31    1
    16     9    10    1
    17     9    16   ar
    18    10    15   ar
    19    10    11   ar
    20    11    12   ar
    21    11    32    1
    22    12    13   ar
    23    12    33    1
    24    13    14   ar
    25    13    34    1
    26    14    15   ar
    27    14    35    1
    28    15    36    1
    29    16    17   ar
    30    16    37    1
    31    17    18   ar
    32    17    38    1
    33    19    26   ar
    34    19    20   ar
    35    20    21   ar
    36    20    39    1
    37    21    22   ar
    38    21    40    1
    39    22    23   ar
    40    22    41    1
    41    23    24    1
    42    23    26   ar
    43    24    25    3
    44    26    42    1
@<TRIPOS>SUBSTRUCTURE
     1 ZINC001625935330        1 TEMP              0 ****  ****    0 ROOT


##########                                Name:    ZINC000543625960
##########                DOCK_Rotatable_Bonds:                   8
##########                         Heavy_Atoms:                  29
##########                    Molecular_Weight:             416.544
##########                DOCK_Rotatable_Bonds:                   8
##########                       Formal_Charge:           -0.010001
##########                     HBond_Acceptors:                   8
##########                        HBond_Donors:                   2
##########                         Heavy_Atoms:                  29
##########                          Grid_Score:          -28.905869
##########                     Grid_vdw_energy:          -24.356405
##########                      Grid_es_energy:           -4.549462
##########           Internal_energy_repulsive:           16.670389

@<TRIPOS>MOLECULE
ZINC000543625960
 57 59 1 0 0
SMALL
USER_CHARGES


@<TRIPOS>ATOM
      1 C1        -15.4594   -3.6182   58.8429 C.3     1  ZINC000543625960   -0.1500
      2 C2        -16.0272   -2.3933   58.1233 C.3     1  ZINC000543625960   -0.1300
      3 C3        -15.6288   -1.1258   58.8821 C.3     1  ZINC000543625960    0.1500
      4 H4        -16.1637   -0.2711   58.4680 H       1  ZINC000543625960    0.0800
      5 C5        -14.1219   -0.9005   58.7429 C.3     1  ZINC000543625960   -0.1700
      6 N6        -15.9712   -1.2766   60.2985 N.am    1  ZINC000543625960   -1.1100
      7 S7        -16.6728   -0.0210   61.1190 S.o2    1  ZINC000543625960    2.7000
      8 O8        -17.8150    0.3623   60.3656 O.2     1  ZINC000543625960   -0.9600
      9 O9        -16.7382   -0.4187   62.4816 O.2     1  ZINC000543625960   -0.9500
     10 C10       -15.5527    1.3375   61.0504 C.ar    1  ZINC000543625960   -0.6600
     11 C11       -15.8744    2.4611   60.3117 C.ar    1  ZINC000543625960   -0.0400
     12 C12       -14.9979    3.5294   60.2552 C.ar    1  ZINC000543625960   -0.1200
     13 C13       -13.7981    3.4769   60.9369 C.ar    1  ZINC000543625960   -0.0600
     14 C14       -13.4722    2.3498   61.6802 C.ar    1  ZINC000543625960    0.1500
     15 N15       -12.2572    2.2934   62.3722 N.am    1  ZINC000543625960   -0.6800
     16 C16       -11.3197    1.3932   62.0156 C.2     1  ZINC000543625960    0.7200
     17 O17       -11.5297    0.6301   61.0926 O.2     1  ZINC000543625960   -0.5600
     18 N18       -10.1495    1.3388   62.6820 N.am    1  ZINC000543625960   -0.6300
     19 C19        -9.7652    2.2004   63.8150 C.3     1  ZINC000543625960    0.0900
     20 C20        -8.6988    1.3856   64.5887 C.3     1  ZINC000543625960   -0.1000
     21 H21        -8.0406    2.0434   65.1563 H       1  ZINC000543625960    0.1000
     22 C22        -9.3567    0.3506   65.5036 C.3     1  ZINC000543625960   -0.1500
     23 C23        -7.9316    0.6965   63.4295 C.3     1  ZINC000543625960   -0.1200
     24 C24        -9.0474    0.4065   62.4036 C.3     1  ZINC000543625960    0.2000
     25 H25        -9.3902   -0.6228   62.5099 H       1  ZINC000543625960    0.0900
     26 C26        -8.5303    0.6325   61.0063 C.ar    1  ZINC000543625960   -0.1400
     27 C27        -8.4522    1.9148   60.4855 C.ar    1  ZINC000543625960   -0.0600
     28 C28        -7.9697    2.0749   59.1954 C.ar    1  ZINC000543625960   -0.1700
     29 C29        -7.5853    0.9590   58.4768 C.ar    1  ZINC000543625960    0.1000
     30 N30        -7.6735   -0.2465   59.0046 N.ar    1  ZINC000543625960   -0.4800
     31 C31        -8.1225   -0.4359   60.2298 C.ar    1  ZINC000543625960    0.1200
     32 C32       -14.3566    1.2811   61.7391 C.ar    1  ZINC000543625960   -0.0500
     33 H33       -15.7433   -4.5211   58.3023 H       1  ZINC000543625960    0.0600
     34 H34       -14.3726   -3.5450   58.8825 H       1  ZINC000543625960    0.0600
     35 H35       -15.8578   -3.6613   59.8566 H       1  ZINC000543625960    0.0500
     36 H36       -15.6288   -2.3503   57.1096 H       1  ZINC000543625960    0.0700
     37 H37       -17.1140   -2.4665   58.0836 H       1  ZINC000543625960    0.0800
     38 H38       -13.8671   -0.7883   57.6891 H       1  ZINC000543625960    0.0700
     39 H39       -13.8381    0.0024   59.2835 H       1  ZINC000543625960    0.0700
     40 H40       -13.5869   -1.7552   59.1570 H       1  ZINC000543625960    0.0600
     41 H41       -15.7869   -2.1120   60.7557 H       1  ZINC000543625960    0.4200
     42 H42       -16.8119    2.5045   59.7773 H       1  ZINC000543625960    0.1400
     43 H43       -15.2519    4.4055   59.6771 H       1  ZINC000543625960    0.1400
     44 H44       -13.1138    4.3112   60.8919 H       1  ZINC000543625960    0.1400
     45 H45       -12.0896    2.9022   63.1085 H       1  ZINC000543625960    0.4100
     46 H46        -9.3387    3.1357   63.4527 H       1  ZINC000543625960    0.0700
     47 H47       -10.6278    2.3971   64.4516 H       1  ZINC000543625960    0.0800
     48 H48        -9.9750   -0.3205   64.9074 H       1  ZINC000543625960    0.0600
     49 H49        -8.5851   -0.2246   66.0154 H       1  ZINC000543625960    0.0600
     50 H50        -9.9787    0.8597   66.2399 H       1  ZINC000543625960    0.0600
     51 H51        -7.1823    1.3679   63.0101 H       1  ZINC000543625960    0.0800
     52 H52        -7.4723   -0.2319   63.7691 H       1  ZINC000543625960    0.0900
     53 H53        -8.7603    2.7687   61.0705 H       1  ZINC000543625960    0.1300
     54 H54        -7.8955    3.0594   58.7575 H       1  ZINC000543625960    0.1400
     55 H55        -7.2088    1.0752   57.4713 H       1  ZINC000543625960    0.1600
     56 H56        -8.1803   -1.4381   60.6281 H       1  ZINC000543625960    0.1400
     57 H57       -14.1061    0.4032   62.3162 H       1  ZINC000543625960    0.1400
@<TRIPOS>BOND
     1     1     2    1
     2     1    33    1
     3     1    34    1
     4     1    35    1
     5     2     3    1
     6     2    36    1
     7     2    37    1
     8     3     4    1
     9     3     5    1
    10     3     6    1
    11     5    38    1
    12     5    39    1
    13     5    40    1
    14     6     7   am
    15     6    41    1
    16     7     8    2
    17     7     9    2
    18     7    10    1
    19    10    32   ar
    20    10    11   ar
    21    11    12   ar
    22    11    42    1
    23    12    13   ar
    24    12    43    1
    25    13    14   ar
    26    13    44    1
    27    14    15    1
    28    14    32   ar
    29    15    16   am
    30    15    45    1
    31    16    17    2
    32    16    18   am
    33    18    24    1
    34    18    19    1
    35    19    20    1
    36    19    46    1
    37    19    47    1
    38    20    21    1
    39    20    22    1
    40    20    23    1
    41    22    48    1
    42    22    49    1
    43    22    50    1
    44    23    24    1
    45    23    51    1
    46    23    52    1
    47    24    25    1
    48    24    26    1
    49    26    31   ar
    50    26    27   ar
    51    27    28   ar
    52    27    53    1
    53    28    29   ar
    54    28    54    1
    55    29    30   ar
    56    29    55    1
    57    30    31   ar
    58    31    56    1
    59    32    57    1
@<TRIPOS>SUBSTRUCTURE
     1 ZINC000543625960        1 TEMP              0 ****  ****    0 ROOT


##########                                Name:    ZINC000179743483
##########                DOCK_Rotatable_Bonds:                   5
##########                         Heavy_Atoms:                  23
##########                    Molecular_Weight:             393.347
##########                DOCK_Rotatable_Bonds:                   5
##########                       Formal_Charge:          -0.0199999
##########                     HBond_Acceptors:                   4
##########                        HBond_Donors:                   0
##########                         Heavy_Atoms:                  23
##########                          Grid_Score:          -28.889544
##########                     Grid_vdw_energy:          -29.104456
##########                      Grid_es_energy:            0.214912
##########           Internal_energy_repulsive:           24.097105

@<TRIPOS>MOLECULE
ZINC000179743483
 44 46 1 0 0
SMALL
USER_CHARGES


@<TRIPOS>ATOM
      1 C1        -10.3062    0.1661   53.4371 C.3     1  ZINC000179743483   -0.1400
      2 C2         -9.6534    1.4991   53.0657 C.3     1  ZINC000179743483   -0.1000
      3 H3        -10.1571    1.9204   52.1956 H       1  ZINC000179743483    0.1000
      4 C4         -9.7708    2.4699   54.2426 C.3     1  ZINC000179743483   -0.0700
      5 C5         -9.2905    1.7941   55.5010 C.ar    1  ZINC000179743483   -0.0600
      6 C6        -10.1881    1.1235   56.3110 C.ar    1  ZINC000179743483   -0.1100
      7 C7         -9.7479    0.5032   57.4650 C.ar    1  ZINC000179743483   -0.0900
      8 C8         -8.4092    0.5534   57.8096 C.ar    1  ZINC000179743483   -0.0900
      9 Br9        -7.8063   -0.2956   59.3880 Br      1  ZINC000179743483   -0.0500
     10 C10        -7.5115    1.2245   56.9988 C.ar    1  ZINC000179743483   -0.0900
     11 C11        -7.9517    1.8400   55.8422 C.ar    1  ZINC000179743483   -0.1100
     12 C12        -8.1987    1.2737   52.7437 C.2     1  ZINC000179743483    0.5200
     13 O13        -7.6412    0.2677   53.1285 O.2     1  ZINC000179743483   -0.5300
     14 N14        -7.5169    2.1900   52.0280 N.am    1  ZINC000179743483   -0.6100
     15 C15        -8.1785    3.4136   51.5549 C.3     1  ZINC000179743483    0.1000
     16 C16        -7.3623    4.6253   52.0160 C.3     1  ZINC000179743483   -0.1400
     17 C17        -5.9150    4.4702   51.5433 C.3     1  ZINC000179743483   -0.1100
     18 C18        -5.3054    3.2120   52.1656 C.3     1  ZINC000179743483   -0.0200
     19 H19        -5.3475    3.2866   53.2522 H       1  ZINC000179743483    0.0900
     20 C20        -3.8702    3.0782   51.7259 C.2     1  ZINC000179743483    0.0500
     21 N21        -2.8780    3.7258   52.2365 N.2     1  ZINC000179743483   -0.4700
     22 C22        -1.6831    3.4889   51.7335 C.2     1  ZINC000179743483    0.0400
     23 C23        -1.6667    2.5914   50.7435 C.2     1  ZINC000179743483   -0.2600
     24 S24        -3.3201    2.0407   50.4832 S.3     1  ZINC000179743483    0.1300
     25 C25        -6.0966    1.9872   51.7114 C.3     1  ZINC000179743483    0.1200
     26 H26        -9.7547   -0.2921   54.2581 H       1  ZINC000179743483    0.0700
     27 H27       -11.3374    0.3396   53.7442 H       1  ZINC000179743483    0.0700
     28 H28       -10.2912   -0.4988   52.5736 H       1  ZINC000179743483    0.0600
     29 H29        -9.1607    3.3519   54.0483 H       1  ZINC000179743483    0.0900
     30 H30       -10.8121    2.7680   54.3650 H       1  ZINC000179743483    0.0800
     31 H31       -11.2333    1.0848   56.0421 H       1  ZINC000179743483    0.1300
     32 H32       -10.4492   -0.0203   58.0980 H       1  ZINC000179743483    0.1300
     33 H33        -6.4663    1.2639   57.2674 H       1  ZINC000179743483    0.1300
     34 H34        -7.2509    2.3640   55.2091 H       1  ZINC000179743483    0.1300
     35 H35        -8.2324    3.4022   50.4662 H       1  ZINC000179743483    0.0700
     36 H36        -9.1839    3.4701   51.9721 H       1  ZINC000179743483    0.0900
     37 H37        -7.7885    5.5340   51.5910 H       1  ZINC000179743483    0.0800
     38 H38        -7.3851    4.6864   53.1040 H       1  ZINC000179743483    0.0700
     39 H39        -5.8952    4.3841   50.4568 H       1  ZINC000179743483    0.0800
     40 H40        -5.3377    5.3428   51.8489 H       1  ZINC000179743483    0.0700
     41 H41        -0.7905    3.9801   52.0917 H       1  ZINC000179743483    0.1800
     42 H42        -0.7936    2.2595   50.2012 H       1  ZINC000179743483    0.1800
     43 H43        -5.7283    1.1015   52.2292 H       1  ZINC000179743483    0.0900
     44 H44        -5.9832    1.8573   50.6351 H       1  ZINC000179743483    0.0800
@<TRIPOS>BOND
     1     1     2    1
     2     1    26    1
     3     1    27    1
     4     1    28    1
     5     2     3    1
     6     2     4    1
     7     2    12    1
     8     4     5    1
     9     4    29    1
    10     4    30    1
    11     5    11   ar
    12     5     6   ar
    13     6     7   ar
    14     6    31    1
    15     7     8   ar
    16     7    32    1
    17     8     9    1
    18     8    10   ar
    19    10    11   ar
    20    10    33    1
    21    11    34    1
    22    12    13    2
    23    12    14   am
    24    14    25    1
    25    14    15    1
    26    15    16    1
    27    15    35    1
    28    15    36    1
    29    16    17    1
    30    16    37    1
    31    16    38    1
    32    17    18    1
    33    17    39    1
    34    17    40    1
    35    18    19    1
    36    18    20    1
    37    18    25    1
    38    20    24    1
    39    20    21    2
    40    21    22    1
    41    22    23    2
    42    22    41    1
    43    23    24    1
    44    23    42    1
    45    25    43    1
    46    25    44    1
@<TRIPOS>SUBSTRUCTURE
     1 ZINC000179743483        1 TEMP              0 ****  ****    0 ROOT


##########                                Name:    ZINC000506156755
##########                DOCK_Rotatable_Bonds:                   7
##########                         Heavy_Atoms:                  30
##########                    Molecular_Weight:             400.434
##########                DOCK_Rotatable_Bonds:                   7
##########                       Formal_Charge:          -0.0200001
##########                     HBond_Acceptors:                   6
##########                        HBond_Donors:                   1
##########                         Heavy_Atoms:                  30
##########                          Grid_Score:          -28.888376
##########                     Grid_vdw_energy:          -28.881138
##########                      Grid_es_energy:           -0.007238
##########           Internal_energy_repulsive:           11.884068

@<TRIPOS>MOLECULE
ZINC000506156755
 50 53 1 0 0
SMALL
USER_CHARGES


@<TRIPOS>ATOM
      1 C1        -12.1375    3.9034   53.7309 C.3     1  ZINC000506156755   -0.1600
      2 C2        -11.7672    2.6056   53.0103 C.3     1  ZINC000506156755    0.1900
      3 H3        -12.5725    1.8810   53.1301 H       1  ZINC000506156755    0.1000
      4 N4        -10.5330    2.0635   53.5839 N.am    1  ZINC000506156755   -0.7200
      5 C5        -10.2408    0.7557   53.4403 C.2     1  ZINC000506156755    0.5000
      6 O6        -11.0004    0.0273   52.8376 O.2     1  ZINC000506156755   -0.5200
      7 C7         -8.9704    0.1984   54.0289 C.3     1  ZINC000506156755    0.0900
      8 N8         -7.8162    0.7860   53.3443 N.am    1  ZINC000506156755   -0.5600
      9 C9         -7.2173    0.2502   52.2654 C.2     1  ZINC000506156755    0.5800
     10 O10        -7.5426   -0.7814   51.7132 O.2     1  ZINC000506156755   -0.4600
     11 C11        -6.0974    1.1275   51.8640 C.ar    1  ZINC000506156755   -0.1400
     12 C12        -5.1510    1.0872   50.8533 C.ar    1  ZINC000506156755   -0.0400
     13 C13        -4.2092    2.0998   50.7526 C.ar    1  ZINC000506156755   -0.0900
     14 C14        -4.2086    3.1479   51.6531 C.ar    1  ZINC000506156755   -0.0900
     15 C15        -5.1498    3.2015   52.6699 C.ar    1  ZINC000506156755   -0.0400
     16 C16        -6.0968    2.1968   52.7829 C.ar    1  ZINC000506156755   -0.1400
     17 C17        -7.2195    1.9354   53.7082 C.2     1  ZINC000506156755    0.5800
     18 O18        -7.5471    2.6394   54.6419 O.2     1  ZINC000506156755   -0.4600
     19 C19       -11.5586    2.8870   51.5445 C.ar    1  ZINC000506156755   -0.1200
     20 C20       -10.3945    3.4943   51.1160 C.ar    1  ZINC000506156755   -0.0800
     21 C21       -10.2023    3.7524   49.7711 C.ar    1  ZINC000506156755   -0.1400
     22 C22       -11.1742    3.4032   48.8519 C.ar    1  ZINC000506156755   -0.0800
     23 C23       -12.3404    2.7954   49.2752 C.ar    1  ZINC000506156755   -0.1900
     24 C24       -12.5335    2.5306   50.6233 C.ar    1  ZINC000506156755    0.1300
     25 O25       -13.6795    1.9325   51.0422 O.3     1  ZINC000506156755   -0.2500
     26 C26       -14.2694    1.0324   50.2126 C.ar    1  ZINC000506156755    0.0800
     27 C27       -13.4986    0.0851   49.5538 C.ar    1  ZINC000506156755   -0.1400
     28 C28       -14.1008   -0.8288   48.7110 C.ar    1  ZINC000506156755   -0.1000
     29 C29       -15.4704   -0.8001   48.5235 C.ar    1  ZINC000506156755   -0.1200
     30 C30       -16.2407    0.1428   49.1786 C.ar    1  ZINC000506156755   -0.1000
     31 C31       -15.6443    1.0553   50.0270 C.ar    1  ZINC000506156755   -0.1200
     32 H32       -12.2883    3.7000   54.7911 H       1  ZINC000506156755    0.0700
     33 H33       -11.3322    4.6281   53.6111 H       1  ZINC000506156755    0.0600
     34 H34       -13.0558    4.3068   53.3041 H       1  ZINC000506156755    0.0700
     35 H35        -9.9260    2.6459   54.0670 H       1  ZINC000506156755    0.4000
     36 H36        -8.9251    0.4405   55.0907 H       1  ZINC000506156755    0.1300
     37 H37        -8.9556   -0.8841   53.9022 H       1  ZINC000506156755    0.1300
     38 H38        -5.1465    0.2702   50.1469 H       1  ZINC000506156755    0.1400
     39 H39        -3.4708    2.0689   49.9652 H       1  ZINC000506156755    0.1400
     40 H40        -3.4697    3.9305   51.5647 H       1  ZINC000506156755    0.1400
     41 H41        -5.1448    4.0233   53.3707 H       1  ZINC000506156755    0.1400
     42 H42        -9.6338    3.7685   51.8321 H       1  ZINC000506156755    0.1300
     43 H43        -9.2915    4.2278   49.4383 H       1  ZINC000506156755    0.1300
     44 H44       -11.0218    3.6060   47.8021 H       1  ZINC000506156755    0.1300
     45 H45       -13.0995    2.5231   48.5568 H       1  ZINC000506156755    0.1300
     46 H46       -12.4288    0.0625   49.6998 H       1  ZINC000506156755    0.1300
     47 H47       -13.5012   -1.5661   48.1978 H       1  ZINC000506156755    0.1300
     48 H48       -15.9392   -1.5153   47.8637 H       1  ZINC000506156755    0.1300
     49 H49       -17.3104    0.1630   49.0304 H       1  ZINC000506156755    0.1300
     50 H50       -16.2465    1.7914   50.5387 H       1  ZINC000506156755    0.1300
@<TRIPOS>BOND
     1     1     2    1
     2     1    32    1
     3     1    33    1
     4     1    34    1
     5     2     3    1
     6     2     4    1
     7     2    19    1
     8     4     5   am
     9     4    35    1
    10     5     6    2
    11     5     7    1
    12     7     8    1
    13     7    36    1
    14     7    37    1
    15     8    17   am
    16     8     9   am
    17     9    10    2
    18     9    11    1
    19    11    16   ar
    20    11    12   ar
    21    12    13   ar
    22    12    38    1
    23    13    14   ar
    24    13    39    1
    25    14    15   ar
    26    14    40    1
    27    15    16   ar
    28    15    41    1
    29    16    17    1
    30    17    18    2
    31    19    24   ar
    32    19    20   ar
    33    20    21   ar
    34    20    42    1
    35    21    22   ar
    36    21    43    1
    37    22    23   ar
    38    22    44    1
    39    23    24   ar
    40    23    45    1
    41    24    25    1
    42    25    26    1
    43    26    31   ar
    44    26    27   ar
    45    27    28   ar
    46    27    46    1
    47    28    29   ar
    48    28    47    1
    49    29    30   ar
    50    29    48    1
    51    30    31   ar
    52    30    49    1
    53    31    50    1
@<TRIPOS>SUBSTRUCTURE
     1 ZINC000506156755        1 TEMP              0 ****  ****    0 ROOT


##########                                Name:    ZINC000646817380
##########                DOCK_Rotatable_Bonds:                   6
##########                         Heavy_Atoms:                  25
##########                    Molecular_Weight:             347.457
##########                DOCK_Rotatable_Bonds:                   6
##########                       Formal_Charge:           0.0199991
##########                     HBond_Acceptors:                   6
##########                        HBond_Donors:                   1
##########                         Heavy_Atoms:                  25
##########                          Grid_Score:          -28.867001
##########                     Grid_vdw_energy:          -28.633976
##########                      Grid_es_energy:           -0.233024
##########           Internal_energy_repulsive:           56.016277

@<TRIPOS>MOLECULE
ZINC000646817380
 54 56 1 0 0
SMALL
USER_CHARGES


@<TRIPOS>ATOM
      1 C1         -2.6801    3.5288   53.2063 C.3     1  ZINC000646817380   -0.1500
      2 C2         -3.0752    3.4579   51.7299 C.3     1  ZINC000646817380   -0.0100
      3 C3         -1.8417    3.1277   50.8871 C.3     1  ZINC000646817380   -0.1500
      4 C4         -4.1159    2.3847   51.5392 C.2     1  ZINC000646817380   -0.0100
      5 C5         -5.0165    1.9608   52.4547 C.2     1  ZINC000646817380   -0.2200
      6 C6         -5.7477    0.9511   51.7737 C.2     1  ZINC000646817380    0.2400
      7 N7         -6.8009    0.1934   52.2827 N.am    1  ZINC000646817380   -0.6100
      8 C8         -7.8056    0.7972   52.9477 C.2     1  ZINC000646817380    0.5200
      9 O9         -7.7939    2.0008   53.1023 O.2     1  ZINC000646817380   -0.4900
     10 C10        -8.9335   -0.0151   53.4948 C.2     1  ZINC000646817380    0.5300
     11 O11        -9.3986   -0.9255   52.8409 O.2     1  ZINC000646817380   -0.5100
     12 N12        -9.4347    0.2631   54.7146 N.am    1  ZINC000646817380   -0.5800
     13 C13        -8.9682    1.3325   55.6091 C.3     1  ZINC000646817380    0.1000
     14 C14        -9.8152    1.2547   56.8968 C.3     1  ZINC000646817380   -0.1300
     15 C15       -10.3286   -0.2094   56.8872 C.3     1  ZINC000646817380   -0.1000
     16 H16        -9.5782   -0.8893   57.2908 H       1  ZINC000646817380    0.1000
     17 C17       -11.6463   -0.3335   57.6547 C.3     1  ZINC000646817380   -0.0700
     18 H18       -12.1887    0.6113   57.6203 H       1  ZINC000646817380    0.0800
     19 C19       -12.5078   -1.4598   57.0470 C.3     1  ZINC000646817380   -0.1300
     20 C20       -13.1899   -2.1191   58.2714 C.3     1  ZINC000646817380   -0.1300
     21 C21       -12.0732   -2.0849   59.3442 C.3     1  ZINC000646817380   -0.1200
     22 C22       -11.3700   -0.7297   59.1157 C.3     1  ZINC000646817380   -0.0700
     23 C23        -9.8640   -0.8759   59.3432 C.3     1  ZINC000646817380   -0.1600
     24 C24       -11.9440    0.3251   60.0638 C.3     1  ZINC000646817380   -0.1400
     25 C25       -10.5457   -0.4507   55.3702 C.3     1  ZINC000646817380    0.0900
     26 N26        -5.2346    0.8755   50.5736 N.2     1  ZINC000646817380   -0.3800
     27 O27        -4.3332    1.6681   50.4271 O.3     1  ZINC000646817380    0.1100
     28 H28        -1.9275    4.3051   53.3441 H       1  ZINC000646817380    0.0700
     29 H29        -3.5589    3.7640   53.8067 H       1  ZINC000646817380    0.0600
     30 H30        -2.2726    2.5677   53.5198 H       1  ZINC000646817380    0.0600
     31 H31        -3.4827    4.4190   51.4163 H       1  ZINC000646817380    0.1100
     32 H32        -1.4341    2.1666   51.2006 H       1  ZINC000646817380    0.0600
     33 H33        -2.1231    3.0773   49.8353 H       1  ZINC000646817380    0.0600
     34 H34        -1.0890    3.9040   51.0250 H       1  ZINC000646817380    0.0700
     35 H35        -5.1488    2.3089   53.4685 H       1  ZINC000646817380    0.1900
     36 H36        -6.8108   -0.7685   52.1581 H       1  ZINC000646817380    0.4300
     37 H37        -7.9154    1.1829   55.8483 H       1  ZINC000646817380    0.0800
     38 H38        -9.1079    2.3024   55.1317 H       1  ZINC000646817380    0.0800
     39 H39        -9.1983    1.4413   57.7760 H       1  ZINC000646817380    0.0900
     40 H40       -10.6486    1.9559   56.8533 H       1  ZINC000646817380    0.0800
     41 H41       -13.2556   -1.0455   56.3708 H       1  ZINC000646817380    0.0700
     42 H42       -11.8792   -2.1819   56.5258 H       1  ZINC000646817380    0.0800
     43 H43       -14.0528   -1.5361   58.5932 H       1  ZINC000646817380    0.0700
     44 H44       -13.4782   -3.1460   58.0465 H       1  ZINC000646817380    0.0700
     45 H45       -12.5041   -2.1266   60.3447 H       1  ZINC000646817380    0.0700
     46 H46       -11.3745   -2.9079   59.1942 H       1  ZINC000646817380    0.0700
     47 H47        -9.5289   -1.8362   58.9512 H       1  ZINC000646817380    0.0700
     48 H48        -9.3392   -0.0706   58.8293 H       1  ZINC000646817380    0.0600
     49 H49        -9.6513   -0.8249   60.4110 H       1  ZINC000646817380    0.0500
     50 H50       -11.7648    0.0224   61.0954 H       1  ZINC000646817380    0.0600
     51 H51       -11.4595    1.2835   59.8770 H       1  ZINC000646817380    0.0500
     52 H52       -13.0163    0.4209   59.8943 H       1  ZINC000646817380    0.0600
     53 H53       -11.5053   -0.0413   55.0545 H       1  ZINC000646817380    0.0900
     54 H54       -10.4939   -1.5157   55.1442 H       1  ZINC000646817380    0.1000
@<TRIPOS>BOND
     1     1     2    1
     2     1    28    1
     3     1    29    1
     4     1    30    1
     5     2     3    1
     6     2     4    1
     7     2    31    1
     8     3    32    1
     9     3    33    1
    10     3    34    1
    11     4    27    1
    12     4     5    2
    13     5     6    1
    14     5    35    1
    15     6     7    1
    16     6    26    2
    17     7     8   am
    18     7    36    1
    19     8     9    2
    20     8    10    1
    21    10    11    2
    22    10    12   am
    23    12    25    1
    24    12    13    1
    25    13    14    1
    26    13    37    1
    27    13    38    1
    28    14    15    1
    29    14    39    1
    30    14    40    1
    31    15    16    1
    32    15    17    1
    33    15    25    1
    34    17    18    1
    35    17    22    1
    36    17    19    1
    37    19    20    1
    38    19    41    1
    39    19    42    1
    40    20    21    1
    41    20    43    1
    42    20    44    1
    43    21    22    1
    44    21    45    1
    45    21    46    1
    46    22    23    1
    47    22    24    1
    48    23    47    1
    49    23    48    1
    50    23    49    1
    51    24    50    1
    52    24    51    1
    53    24    52    1
    54    25    53    1
    55    25    54    1
    56    26    27    1
@<TRIPOS>SUBSTRUCTURE
     1 ZINC000646817380        1 TEMP              0 ****  ****    0 ROOT


##########                                Name:    ZINC000629379364
##########                DOCK_Rotatable_Bonds:                   5
##########                         Heavy_Atoms:                  23
##########                    Molecular_Weight:             386.261
##########                DOCK_Rotatable_Bonds:                   5
##########                       Formal_Charge:               -0.02
##########                     HBond_Acceptors:                   5
##########                        HBond_Donors:                   1
##########                         Heavy_Atoms:                  23
##########                          Grid_Score:          -28.858276
##########                     Grid_vdw_energy:          -24.152203
##########                      Grid_es_energy:           -4.706073
##########           Internal_energy_repulsive:           22.296667

@<TRIPOS>MOLECULE
ZINC000629379364
 44 46 1 0 0
SMALL
USER_CHARGES


@<TRIPOS>ATOM
      1 O1        -17.6595   -1.2215   61.3184 O.co2   1  ZINC000629379364   -0.6800
      2 C2        -16.5685   -1.6779   61.0219 C.2     1  ZINC000629379364    0.5000
      3 O3        -15.7618   -1.9461   61.8960 O.co2   1  ZINC000629379364   -0.6900
      4 C4        -16.2193   -1.9165   59.5755 C.3     1  ZINC000629379364   -0.1600
      5 H5        -17.1070   -1.7984   58.9540 H       1  ZINC000629379364    0.0800
      6 C6        -15.6397   -3.3312   59.4009 C.3     1  ZINC000629379364   -0.1300
      7 C7        -15.1432   -3.5520   57.9753 C.3     1  ZINC000629379364   -0.0100
      8 N8        -14.1766   -2.5153   57.5645 N.4     1  ZINC000629379364   -0.3700
      9 H9        -13.8693   -2.6885   56.6192 H       1  ZINC000629379364    0.4200
     10 C10       -13.0225   -2.5209   58.4733 C.3     1  ZINC000629379364   -0.0200
     11 C11       -11.9583   -3.4823   57.9404 C.3     1  ZINC000629379364    0.0300
     12 O12       -11.2372   -2.8537   56.8789 O.3     1  ZINC000629379364   -0.3200
     13 C13       -10.5358   -1.7318   57.1892 C.ar    1  ZINC000629379364    0.1600
     14 C14       -10.3828   -0.7259   56.2470 C.ar    1  ZINC000629379364   -0.2300
     15 C15        -9.6683    0.4158   56.5652 C.ar    1  ZINC000629379364    0.1500
     16 F16        -9.5186    1.3964   55.6480 F       1  ZINC000629379364   -0.1200
     17 C17        -9.1070    0.5534   57.8234 C.ar    1  ZINC000629379364   -0.1600
     18 C18        -9.2589   -0.4500   58.7637 C.ar    1  ZINC000629379364   -0.0300
     19 Br19       -8.4912   -0.2589   60.4814 Br      1  ZINC000629379364   -0.0100
     20 C20        -9.9769   -1.5890   58.4511 C.ar    1  ZINC000629379364   -0.1300
     21 C21       -14.8571   -1.2323   57.6355 C.3     1  ZINC000629379364   -0.0100
     22 H22       -15.7931   -1.2751   57.0788 H       1  ZINC000629379364    0.1400
     23 C23       -14.0447   -0.0073   57.2031 C.3     1  ZINC000629379364   -0.1300
     24 C24       -14.7736    1.1642   57.9156 C.3     1  ZINC000629379364   -0.1200
     25 C25       -15.5071    0.5471   59.1319 C.3     1  ZINC000629379364   -0.1100
     26 C26       -15.1428   -0.9401   59.1335 C.3     1  ZINC000629379364   -0.0700
     27 H27       -14.2251   -1.0974   59.7002 H       1  ZINC000629379364    0.1000
     28 H28       -14.8086   -3.4647   60.0934 H       1  ZINC000629379364    0.0800
     29 H29       -16.4135   -4.0648   59.6273 H       1  ZINC000629379364    0.1100
     30 H30       -14.6636   -4.5290   57.9135 H       1  ZINC000629379364    0.1200
     31 H31       -15.9950   -3.5326   57.2955 H       1  ZINC000629379364    0.1300
     32 H32       -12.6052   -1.5159   58.5367 H       1  ZINC000629379364    0.1400
     33 H33       -13.3416   -2.8450   59.4639 H       1  ZINC000629379364    0.1700
     34 H34       -11.2690   -3.7428   58.7436 H       1  ZINC000629379364    0.1100
     35 H35       -12.4395   -4.3864   57.5672 H       1  ZINC000629379364    0.0900
     36 H36       -10.8207   -0.8335   55.2655 H       1  ZINC000629379364    0.1500
     37 H37        -8.5499    1.4448   58.0710 H       1  ZINC000629379364    0.1500
     38 H38       -10.0952   -2.3715   59.1860 H       1  ZINC000629379364    0.1500
     39 H39       -13.0139   -0.0868   57.5485 H       1  ZINC000629379364    0.0800
     40 H40       -14.0813    0.1172   56.1209 H       1  ZINC000629379364    0.0900
     41 H41       -14.0494    1.9059   58.2524 H       1  ZINC000629379364    0.0800
     42 H42       -15.4934    1.6240   57.2384 H       1  ZINC000629379364    0.0800
     43 H43       -15.1792    1.0273   60.0539 H       1  ZINC000629379364    0.0900
     44 H44       -16.5858    0.6507   59.0145 H       1  ZINC000629379364    0.0800
@<TRIPOS>BOND
     1     1     2   ar
     2     2     3   ar
     3     2     4    1
     4     4     5    1
     5     4    26    1
     6     4     6    1
     7     6     7    1
     8     6    28    1
     9     6    29    1
    10     7     8    1
    11     7    30    1
    12     7    31    1
    13     8     9    1
    14     8    10    1
    15     8    21    1
    16    10    11    1
    17    10    32    1
    18    10    33    1
    19    11    12    1
    20    11    34    1
    21    11    35    1
    22    12    13    1
    23    13    20   ar
    24    13    14   ar
    25    14    15   ar
    26    14    36    1
    27    15    16    1
    28    15    17   ar
    29    17    18   ar
    30    17    37    1
    31    18    19    1
    32    18    20   ar
    33    20    38    1
    34    21    22    1
    35    21    26    1
    36    21    23    1
    37    23    24    1
    38    23    39    1
    39    23    40    1
    40    24    25    1
    41    24    41    1
    42    24    42    1
    43    25    26    1
    44    25    43    1
    45    25    44    1
    46    26    27    1
@<TRIPOS>SUBSTRUCTURE
     1 ZINC000629379364        1 TEMP              0 ****  ****    0 ROOT


##########                                Name:    ZINC000938043669
##########                DOCK_Rotatable_Bonds:                   7
##########                         Heavy_Atoms:                  27
##########                    Molecular_Weight:             372.439
##########                DOCK_Rotatable_Bonds:                   7
##########                       Formal_Charge:           0.0499999
##########                     HBond_Acceptors:                   6
##########                        HBond_Donors:                   1
##########                         Heavy_Atoms:                  27
##########                          Grid_Score:          -28.846184
##########                     Grid_vdw_energy:          -27.118771
##########                      Grid_es_energy:           -1.727413
##########           Internal_energy_repulsive:           22.539761

@<TRIPOS>MOLECULE
ZINC000938043669
 52 55 1 0 0
SMALL
USER_CHARGES


@<TRIPOS>ATOM
      1 O1         -3.0048    4.4653   55.3680 O.2     1  ZINC000938043669   -0.5000
      2 C2         -4.1111    4.7089   54.9346 C.2     1  ZINC000938043669    0.5300
      3 C3         -4.2666    5.5666   53.7053 C.3     1  ZINC000938043669    0.0500
      4 O4         -4.5093    4.7329   52.5703 O.3     1  ZINC000938043669   -0.2800
      5 C5         -3.4509    4.0346   52.0799 C.ar    1  ZINC000938043669    0.0900
      6 C6         -2.1666    4.3244   52.5136 C.ar    1  ZINC000938043669   -0.1800
      7 C7         -1.0920    3.6129   52.0142 C.ar    1  ZINC000938043669   -0.0900
      8 C8         -1.2960    2.6124   51.0825 C.ar    1  ZINC000938043669   -0.1300
      9 C9         -2.5756    2.3202   50.6466 C.ar    1  ZINC000938043669   -0.1100
     10 C10        -3.6551    3.0250   51.1472 C.ar    1  ZINC000938043669    0.0800
     11 F11        -4.9051    2.7399   50.7217 F       1  ZINC000938043669   -0.1300
     12 N12        -5.2010    4.2079   55.5490 N.am    1  ZINC000938043669   -0.6200
     13 C13        -6.5942    4.4190   55.1295 C.3     1  ZINC000938043669    0.1000
     14 C14        -7.4918    3.6362   56.1107 C.3     1  ZINC000938043669   -0.1400
     15 C15        -6.5258    2.5688   56.6895 C.3     1  ZINC000938043669    0.1300
     16 H16        -6.4423    1.7133   56.0193 H       1  ZINC000938043669    0.1100
     17 N17        -6.9508    2.1458   58.0261 N.am    1  ZINC000938043669   -0.7200
     18 C18        -7.9585    1.2616   58.1644 C.2     1  ZINC000938043669    0.5200
     19 O19        -8.5126    0.8151   57.1824 O.2     1  ZINC000938043669   -0.5200
     20 C20        -8.3968    0.8277   59.5394 C.3     1  ZINC000938043669   -0.1000
     21 H21        -7.6062    1.0444   60.2578 H       1  ZINC000938043669    0.1000
     22 C22        -8.6814   -0.6760   59.5329 C.3     1  ZINC000938043669   -0.1100
     23 C23       -10.1442   -0.9232   59.9234 C.3     1  ZINC000938043669   -0.0600
     24 H24       -10.3827   -1.9857   59.8751 H       1  ZINC000938043669    0.0800
     25 C25       -11.0225   -0.1289   58.9682 C.2     1  ZINC000938043669   -0.1800
     26 C26       -10.7750    1.1788   58.9738 C.2     1  ZINC000938043669   -0.1300
     27 C27        -9.6689    1.5888   59.9343 C.3     1  ZINC000938043669   -0.0400
     28 H28        -9.5108    2.6669   59.9042 H       1  ZINC000938043669    0.0900
     29 C29       -10.0831    1.1385   61.3419 C.3     1  ZINC000938043669   -0.1200
     30 C30       -10.3628   -0.3804   61.3425 C.3     1  ZINC000938043669   -0.1100
     31 C31        -5.1934    3.3523   56.7495 C.3     1  ZINC000938043669    0.1000
     32 H32        -5.1064    6.2481   53.8416 H       1  ZINC000938043669    0.1000
     33 H33        -3.3545    6.1415   53.5454 H       1  ZINC000938043669    0.1000
     34 H34        -2.0057    5.1060   53.2414 H       1  ZINC000938043669    0.1400
     35 H35        -0.0915    3.8392   52.3521 H       1  ZINC000938043669    0.1300
     36 H36        -0.4545    2.0581   50.6939 H       1  ZINC000938043669    0.1400
     37 H37        -2.7322    1.5384   49.9183 H       1  ZINC000938043669    0.1500
     38 H38        -6.8371    5.4809   55.1713 H       1  ZINC000938043669    0.0800
     39 H39        -6.7371    4.0437   54.1162 H       1  ZINC000938043669    0.0800
     40 H40        -7.8619    4.2901   56.9004 H       1  ZINC000938043669    0.0900
     41 H41        -8.3188    3.1619   55.5822 H       1  ZINC000938043669    0.1000
     42 H42        -6.5067    2.5019   58.8116 H       1  ZINC000938043669    0.4000
     43 H43        -8.4994   -1.0756   58.5353 H       1  ZINC000938043669    0.0700
     44 H44        -8.0257   -1.1727   60.2480 H       1  ZINC000938043669    0.0800
     45 H45       -11.7768   -0.5840   58.3434 H       1  ZINC000938043669    0.1200
     46 H46       -11.3094    1.8832   58.3537 H       1  ZINC000938043669    0.1200
     47 H47        -9.2768    1.3522   62.0435 H       1  ZINC000938043669    0.0700
     48 H48       -10.9809    1.6768   61.6459 H       1  ZINC000938043669    0.0700
     49 H49       -11.3953   -0.5594   61.6429 H       1  ZINC000938043669    0.0700
     50 H50        -9.6901   -0.8733   62.0442 H       1  ZINC000938043669    0.0700
     51 H51        -4.3478    2.6650   56.7243 H       1  ZINC000938043669    0.0900
     52 H52        -5.1558    3.9685   57.6479 H       1  ZINC000938043669    0.0700
@<TRIPOS>BOND
     1     1     2    2
     2     2     3    1
     3     2    12   am
     4     3     4    1
     5     3    32    1
     6     3    33    1
     7     4     5    1
     8     5    10   ar
     9     5     6   ar
    10     6     7   ar
    11     6    34    1
    12     7     8   ar
    13     7    35    1
    14     8     9   ar
    15     8    36    1
    16     9    10   ar
    17     9    37    1
    18    10    11    1
    19    12    31    1
    20    12    13    1
    21    13    14    1
    22    13    38    1
    23    13    39    1
    24    14    15    1
    25    14    40    1
    26    14    41    1
    27    15    16    1
    28    15    17    1
    29    15    31    1
    30    17    18   am
    31    17    42    1
    32    18    19    2
    33    18    20    1
    34    20    21    1
    35    20    27    1
    36    20    22    1
    37    22    23    1
    38    22    43    1
    39    22    44    1
    40    23    24    1
    41    23    30    1
    42    23    25    1
    43    25    26    2
    44    25    45    1
    45    26    27    1
    46    26    46    1
    47    27    28    1
    48    27    29    1
    49    29    30    1
    50    29    47    1
    51    29    48    1
    52    30    49    1
    53    30    50    1
    54    31    51    1
    55    31    52    1
@<TRIPOS>SUBSTRUCTURE
     1 ZINC000938043669        1 TEMP              0 ****  ****    0 ROOT


##########                                Name:    ZINC000052999724
##########                DOCK_Rotatable_Bonds:                   6
##########                         Heavy_Atoms:                  25
##########                    Molecular_Weight:             398.571
##########                DOCK_Rotatable_Bonds:                   6
##########                       Formal_Charge:           0.0399994
##########                     HBond_Acceptors:                   8
##########                        HBond_Donors:                   1
##########                         Heavy_Atoms:                  25
##########                          Grid_Score:          -28.827522
##########                     Grid_vdw_energy:          -26.484402
##########                      Grid_es_energy:           -2.343120
##########           Internal_energy_repulsive:           11.742148

@<TRIPOS>MOLECULE
ZINC000052999724
 47 49 1 0 0
SMALL
USER_CHARGES


@<TRIPOS>ATOM
      1 C1        -12.2154    0.4577   61.4534 C.3     1  ZINC000052999724   -0.1400
      2 C2        -11.3679    1.0587   60.3304 C.3     1  ZINC000052999724   -0.0400
      3 C3        -11.2252    2.5661   60.5501 C.3     1  ZINC000052999724   -0.1400
      4 C4        -10.0033    0.4193   60.3335 C.2     1  ZINC000052999724   -0.0400
      5 C5         -9.3903   -0.0487   59.2054 C.2     1  ZINC000052999724   -0.2600
      6 C6         -9.9504   -0.0019   57.8516 C.2     1  ZINC000052999724    0.6000
      7 O7        -10.7955   -0.8101   57.5145 O.2     1  ZINC000052999724   -0.5200
      8 N8         -9.5296    0.9363   56.9803 N.am    1  ZINC000052999724   -0.6000
      9 C9         -8.5057    1.9150   57.3706 C.3     1  ZINC000052999724    0.1100
     10 C10        -7.3695    1.8763   56.3438 C.3     1  ZINC000052999724   -0.1400
     11 C11        -7.9459    2.0943   54.9429 C.3     1  ZINC000052999724    0.1500
     12 N12        -6.8580    2.0909   53.9617 N.am    1  ZINC000052999724   -1.1100
     13 S13        -6.8766    3.1645   52.7010 S.o2    1  ZINC000052999724    2.7200
     14 O14        -7.9807    2.8034   51.8826 O.2     1  ZINC000052999724   -0.9500
     15 O15        -6.7222    4.4567   53.2721 O.2     1  ZINC000052999724   -0.9400
     16 C16        -5.4285    2.8681   51.7420 C.2     1  ZINC000052999724   -0.8000
     17 C17        -4.2184    3.3652   52.0028 C.2     1  ZINC000052999724    0.0100
     18 C18        -3.2300    2.9937   51.1078 C.2     1  ZINC000052999724   -0.1600
     19 C19        -3.6373    2.1949   50.1203 C.2     1  ZINC000052999724   -0.1700
     20 S20        -5.3557    1.8653   50.2989 S.3     1  ZINC000052999724    0.2100
     21 C21        -8.9322    0.9712   54.6146 C.3     1  ZINC000052999724   -0.1500
     22 C22       -10.0816    0.9959   55.6200 C.3     1  ZINC000052999724    0.1100
     23 S23        -7.8218   -0.7153   59.6379 S.3     1  ZINC000052999724    0.2100
     24 C24        -8.0635   -0.3386   61.2843 C.2     1  ZINC000052999724   -0.2400
     25 C25        -9.2488    0.2537   61.4706 C.2     1  ZINC000052999724   -0.1300
     26 H26       -12.3171   -0.6162   61.2969 H       1  ZINC000052999724    0.0600
     27 H27       -11.7306    0.6408   62.4123 H       1  ZINC000052999724    0.0600
     28 H28       -13.2024    0.9202   61.4511 H       1  ZINC000052999724    0.0600
     29 H29       -11.8528    0.8757   59.3715 H       1  ZINC000052999724    0.0800
     30 H30       -10.7403    2.7493   61.5090 H       1  ZINC000052999724    0.0600
     31 H31       -10.6214    2.9944   59.7500 H       1  ZINC000052999724    0.0600
     32 H32       -12.2121    3.0287   60.5478 H       1  ZINC000052999724    0.0600
     33 H33        -8.9438    2.9128   57.3934 H       1  ZINC000052999724    0.0800
     34 H34        -8.1157    1.6623   58.3567 H       1  ZINC000052999724    0.0900
     35 H35        -6.6497    2.6635   56.5676 H       1  ZINC000052999724    0.0900
     36 H36        -6.8737    0.9065   56.3862 H       1  ZINC000052999724    0.0800
     37 H37        -8.4631    3.0532   54.9083 H       1  ZINC000052999724    0.0900
     38 H38        -6.1269    1.4597   54.0504 H       1  ZINC000052999724    0.4200
     39 H39        -4.0247    4.0090   52.8479 H       1  ZINC000052999724    0.1600
     40 H40        -2.2066    3.3258   51.2018 H       1  ZINC000052999724    0.1500
     41 H41        -3.0073    1.8068   49.3334 H       1  ZINC000052999724    0.1800
     42 H42        -9.3246    1.1144   53.6078 H       1  ZINC000052999724    0.1000
     43 H43        -8.4216    0.0099   54.6733 H       1  ZINC000052999724    0.0800
     44 H44       -10.7334    0.1388   55.4508 H       1  ZINC000052999724    0.1000
     45 H45       -10.6499    1.9186   55.5026 H       1  ZINC000052999724    0.0800
     46 H46        -7.3529   -0.5469   62.0705 H       1  ZINC000052999724    0.1700
     47 H47        -9.5912    0.5711   62.4446 H       1  ZINC000052999724    0.1400
@<TRIPOS>BOND
     1     1     2    1
     2     1    26    1
     3     1    27    1
     4     1    28    1
     5     2     3    1
     6     2     4    1
     7     2    29    1
     8     3    30    1
     9     3    31    1
    10     3    32    1
    11     4    25    1
    12     4     5    2
    13     5     6    1
    14     5    23    1
    15     6     7    2
    16     6     8   am
    17     8    22    1
    18     8     9    1
    19     9    10    1
    20     9    33    1
    21     9    34    1
    22    10    11    1
    23    10    35    1
    24    10    36    1
    25    11    12    1
    26    11    21    1
    27    11    37    1
    28    12    13   am
    29    12    38    1
    30    13    14    2
    31    13    15    2
    32    13    16    1
    33    16    20    1
    34    16    17    2
    35    17    18    1
    36    17    39    1
    37    18    19    2
    38    18    40    1
    39    19    20    1
    40    19    41    1
    41    21    22    1
    42    21    42    1
    43    21    43    1
    44    22    44    1
    45    22    45    1
    46    23    24    1
    47    24    25    2
    48    24    46    1
    49    25    47    1
@<TRIPOS>SUBSTRUCTURE
     1 ZINC000052999724        1 TEMP              0 ****  ****    0 ROOT


##########                                Name:    ZINC000279331220
##########                DOCK_Rotatable_Bonds:                   9
##########                         Heavy_Atoms:                  24
##########                    Molecular_Weight:             328.411
##########                DOCK_Rotatable_Bonds:                   9
##########                       Formal_Charge:          -0.0100001
##########                     HBond_Acceptors:                   5
##########                        HBond_Donors:                   0
##########                         Heavy_Atoms:                  24
##########                          Grid_Score:          -28.808918
##########                     Grid_vdw_energy:          -29.044346
##########                      Grid_es_energy:            0.235429
##########           Internal_energy_repulsive:           18.281668

@<TRIPOS>MOLECULE
ZINC000279331220
 48 49 1 0 0
SMALL
USER_CHARGES


@<TRIPOS>ATOM
      1 C1        -10.3178   -1.7296   58.3207 C.3     1  ZINC000279331220   -0.1500
      2 C2        -10.4268   -3.1899   57.8777 C.3     1  ZINC000279331220    0.0500
      3 O3        -10.8565   -3.2437   56.5159 O.3     1  ZINC000279331220   -0.3000
      4 C4        -11.9240   -2.4736   56.1744 C.ar    1  ZINC000279331220    0.1000
      5 C5        -13.1647   -2.7166   56.7407 C.ar    1  ZINC000279331220   -0.1700
      6 C6        -14.2491   -1.9323   56.3928 C.ar    1  ZINC000279331220   -0.1200
      7 C7        -14.0987   -0.9055   55.4799 C.ar    1  ZINC000279331220   -0.1200
      8 C8        -12.8631   -0.6579   54.9104 C.ar    1  ZINC000279331220   -0.1700
      9 C9        -11.7713   -1.4358   55.2594 C.ar    1  ZINC000279331220    0.1000
     10 O10       -10.5555   -1.1937   54.7003 O.3     1  ZINC000279331220   -0.3000
     11 C11       -10.5056   -0.2264   53.6496 C.3     1  ZINC000279331220    0.0600
     12 C12        -9.0784   -0.1373   53.1057 C.3     1  ZINC000279331220   -0.1100
     13 C13        -8.7416    1.3221   52.7938 C.3     1  ZINC000279331220   -0.1300
     14 C14        -7.2817    1.4358   52.4376 C.2     1  ZINC000279331220    0.5200
     15 O15        -6.5864    0.4427   52.4052 O.2     1  ZINC000279331220   -0.5200
     16 N16        -6.7488    2.6410   52.1550 N.am    1  ZINC000279331220   -0.5700
     17 C17        -7.5884    3.8409   52.1958 C.3     1  ZINC000279331220    0.0800
     18 C18        -5.3987    2.7458   51.8238 C.ar    1  ZINC000279331220    0.3400
     19 N19        -4.9879    2.3759   50.6214 N.ar    1  ZINC000279331220   -0.4800
     20 C20        -3.7196    2.4588   50.2675 C.ar    1  ZINC000279331220    0.1100
     21 C21        -2.7691    2.9385   51.1467 C.ar    1  ZINC000279331220   -0.1600
     22 C22        -3.1591    3.3372   52.4182 C.ar    1  ZINC000279331220   -0.0700
     23 C23        -4.4971    3.2436   52.7580 C.ar    1  ZINC000279331220   -0.1200
     24 C24        -4.9689    3.6646   54.1258 C.3     1  ZINC000279331220   -0.1100
     25 H25        -9.9901   -1.6885   59.3594 H       1  ZINC000279331220    0.0800
     26 H26        -9.5945   -1.2118   57.6907 H       1  ZINC000279331220    0.0700
     27 H27       -11.2912   -1.2480   58.2276 H       1  ZINC000279331220    0.0700
     28 H28        -9.4534   -3.6715   57.9708 H       1  ZINC000279331220    0.0600
     29 H29       -11.1501   -3.7078   58.5076 H       1  ZINC000279331220    0.0600
     30 H30       -13.2850   -3.5188   57.4538 H       1  ZINC000279331220    0.1300
     31 H31       -15.2158   -2.1227   56.8350 H       1  ZINC000279331220    0.1300
     32 H32       -14.9482   -0.2954   55.2105 H       1  ZINC000279331220    0.1300
     33 H33       -12.7485    0.1446   54.1969 H       1  ZINC000279331220    0.1300
     34 H34       -11.1818   -0.5249   52.8485 H       1  ZINC000279331220    0.0600
     35 H35       -10.8083    0.7465   54.0368 H       1  ZINC000279331220    0.0600
     36 H36        -8.3810   -0.5199   53.8509 H       1  ZINC000279331220    0.0800
     37 H37        -8.9989   -0.7311   52.1950 H       1  ZINC000279331220    0.0800
     38 H38        -9.3480    1.6637   51.9549 H       1  ZINC000279331220    0.1000
     39 H39        -8.9512    1.9382   53.6683 H       1  ZINC000279331220    0.1000
     40 H40        -7.6382    4.2148   53.2184 H       1  ZINC000279331220    0.0700
     41 H41        -7.1594    4.6066   51.5495 H       1  ZINC000279331220    0.0800
     42 H42        -8.5921    3.5940   51.8500 H       1  ZINC000279331220    0.0800
     43 H43        -3.4209    2.1471   49.2776 H       1  ZINC000279331220    0.1600
     44 H44        -1.7331    3.0026   50.8486 H       1  ZINC000279331220    0.1400
     45 H45        -2.4352    3.7160   53.1244 H       1  ZINC000279331220    0.1400
     46 H46        -5.3224    4.6950   54.0871 H       1  ZINC000279331220    0.0800
     47 H47        -5.7822    3.0133   54.4460 H       1  ZINC000279331220    0.0700
     48 H48        -4.1435    3.5900   54.8338 H       1  ZINC000279331220    0.0700
@<TRIPOS>BOND
     1     1     2    1
     2     1    25    1
     3     1    26    1
     4     1    27    1
     5     2     3    1
     6     2    28    1
     7     2    29    1
     8     3     4    1
     9     4     9   ar
    10     4     5   ar
    11     5     6   ar
    12     5    30    1
    13     6     7   ar
    14     6    31    1
    15     7     8   ar
    16     7    32    1
    17     8     9   ar
    18     8    33    1
    19     9    10    1
    20    10    11    1
    21    11    12    1
    22    11    34    1
    23    11    35    1
    24    12    13    1
    25    12    36    1
    26    12    37    1
    27    13    14    1
    28    13    38    1
    29    13    39    1
    30    14    15    2
    31    14    16   am
    32    16    17    1
    33    16    18    1
    34    17    40    1
    35    17    41    1
    36    17    42    1
    37    18    23   ar
    38    18    19   ar
    39    19    20   ar
    40    20    21   ar
    41    20    43    1
    42    21    22   ar
    43    21    44    1
    44    22    23   ar
    45    22    45    1
    46    23    24    1
    47    24    46    1
    48    24    47    1
    49    24    48    1
@<TRIPOS>SUBSTRUCTURE
     1 ZINC000279331220        1 TEMP              0 ****  ****    0 ROOT


##########                                Name:    ZINC000899027326
##########                DOCK_Rotatable_Bonds:                   5
##########                         Heavy_Atoms:                  22
##########                    Molecular_Weight:             346.169
##########                DOCK_Rotatable_Bonds:                   5
##########                       Formal_Charge:           0.0300005
##########                     HBond_Acceptors:                   9
##########                        HBond_Donors:                   1
##########                         Heavy_Atoms:                  22
##########                          Grid_Score:          -28.776165
##########                     Grid_vdw_energy:          -28.192482
##########                      Grid_es_energy:           -0.583683
##########           Internal_energy_repulsive:            7.395810

@<TRIPOS>MOLECULE
ZINC000899027326
 35 36 1 0 0
SMALL
USER_CHARGES


@<TRIPOS>ATOM
      1 C1        -10.9196    0.5646   52.7686 C.3     1  ZINC000899027326   -0.1500
      2 C2         -9.7093    0.3254   53.6738 C.3     1  ZINC000899027326    0.1100
      3 H3         -9.9389   -0.4275   54.4279 H       1  ZINC000899027326    0.1400
      4 C4         -8.5042   -0.0910   52.8539 C.2     1  ZINC000899027326    0.5300
      5 O5         -8.3984   -1.0768   52.1563 O.2     1  ZINC000899027326   -0.4500
      6 N6         -7.5753    0.8631   53.0613 N.am    1  ZINC000899027326   -0.3700
      7 N7         -6.3003    0.8596   52.4806 N.am    1  ZINC000899027326   -0.5000
      8 C8         -5.9963    1.7513   51.5168 C.2     1  ZINC000899027326    0.5200
      9 O9         -6.8260    2.5576   51.1532 O.2     1  ZINC000899027326   -0.4800
     10 C10        -4.6254    1.7463   50.8910 C.3     1  ZINC000899027326    0.0500
     11 O11        -3.7442    2.5602   51.6676 O.3     1  ZINC000899027326   -0.2700
     12 C12        -2.4472    2.6234   51.2654 C.ar    1  ZINC000899027326    0.1400
     13 C13        -2.0423    1.9557   50.1197 C.ar    1  ZINC000899027326   -0.1900
     14 C14        -0.7234    2.0210   49.7123 C.ar    1  ZINC000899027326   -0.0600
     15 C15         0.1933    2.7520   50.4464 C.ar    1  ZINC000899027326   -0.0600
     16 Cl16        1.8492    2.8326   49.9316 Cl      1  ZINC000899027326   -0.0500
     17 C17        -0.2080    3.4195   51.5904 C.ar    1  ZINC000899027326   -0.0600
     18 C18        -1.5273    3.3614   51.9981 C.ar    1  ZINC000899027326   -0.0500
     19 Cl19       -2.0308    4.1988   53.4332 Cl      1  ZINC000899027326   -0.0300
     20 C20        -8.0214    1.8145   53.8896 C.2     1  ZINC000899027326    0.7000
     21 O21        -7.3637    2.7792   54.2269 O.2     1  ZINC000899027326   -0.5200
     22 N22        -9.2816    1.5831   54.3104 N.am    1  ZINC000899027326   -0.6200
     23 C23       -10.0690    2.4209   55.2183 C.3     1  ZINC000899027326    0.1200
     24 H24       -10.6675    1.3101   52.0145 H       1  ZINC000899027326    0.0700
     25 H25       -11.1968   -0.3686   52.2786 H       1  ZINC000899027326    0.0900
     26 H26       -11.7564    0.9228   53.3681 H       1  ZINC000899027326    0.0900
     27 H27        -5.6363    0.2154   52.7723 H       1  ZINC000899027326    0.4300
     28 H28        -4.2441    0.7257   50.8593 H       1  ZINC000899027326    0.1100
     29 H29        -4.6873    2.1426   49.8774 H       1  ZINC000899027326    0.1100
     30 H30        -2.7573    1.3844   49.5461 H       1  ZINC000899027326    0.1500
     31 H31        -0.4080    1.5006   48.8201 H       1  ZINC000899027326    0.1500
     32 H32         0.5091    3.9897   52.1622 H       1  ZINC000899027326    0.1500
     33 H33        -9.4782    3.2863   55.5184 H       1  ZINC000899027326    0.0900
     34 H34       -10.9731    2.7567   54.7105 H       1  ZINC000899027326    0.0700
     35 H35       -10.3416    1.8431   56.1014 H       1  ZINC000899027326    0.0700
@<TRIPOS>BOND
     1     1     2    1
     2     1    24    1
     3     1    25    1
     4     1    26    1
     5     2     3    1
     6     2    22    1
     7     2     4    1
     8     4     5    2
     9     4     6   am
    10     6     7    1
    11     6    20   am
    12     7     8   am
    13     7    27    1
    14     8     9    2
    15     8    10    1
    16    10    11    1
    17    10    28    1
    18    10    29    1
    19    11    12    1
    20    12    18   ar
    21    12    13   ar
    22    13    14   ar
    23    13    30    1
    24    14    15   ar
    25    14    31    1
    26    15    16    1
    27    15    17   ar
    28    17    18   ar
    29    17    32    1
    30    18    19    1
    31    20    21    2
    32    20    22   am
    33    22    23    1
    34    23    33    1
    35    23    34    1
    36    23    35    1
@<TRIPOS>SUBSTRUCTURE
     1 ZINC000899027326        1 TEMP              0 ****  ****    0 ROOT


##########                                Name:    ZINC000518234532
##########                DOCK_Rotatable_Bonds:                   5
##########                         Heavy_Atoms:                  25
##########                    Molecular_Weight:             408.267
##########                DOCK_Rotatable_Bonds:                   5
##########                       Formal_Charge:         -0.00999981
##########                     HBond_Acceptors:                   5
##########                        HBond_Donors:                   1
##########                         Heavy_Atoms:                  25
##########                          Grid_Score:          -28.769119
##########                     Grid_vdw_energy:          -28.253536
##########                      Grid_es_energy:           -0.515583
##########           Internal_energy_repulsive:           16.742416

@<TRIPOS>MOLECULE
ZINC000518234532
 44 46 1 0 0
SMALL
USER_CHARGES


@<TRIPOS>ATOM
      1 C1         -0.6329    5.9444   53.2708 C.3     1  ZINC000518234532   -0.1600
      2 C2         -0.5763    4.4533   53.6090 C.3     1  ZINC000518234532    0.1800
      3 H3          0.4466    4.0939   53.4971 H       1  ZINC000518234532    0.1100
      4 N4         -1.0174    4.2488   54.9910 N.am    1  ZINC000518234532   -0.7300
      5 C5         -0.1072    4.0903   55.9723 C.2     1  ZINC000518234532    0.5200
      6 O6          1.0769    4.1183   55.7114 O.2     1  ZINC000518234532   -0.5200
      7 C7         -0.5609    3.8782   57.3936 C.3     1  ZINC000518234532   -0.0700
      8 H8         -0.0897    4.6189   58.0398 H       1  ZINC000518234532    0.1100
      9 C9         -0.1624    2.4741   57.8521 C.3     1  ZINC000518234532   -0.1400
     10 C10        -2.0588    4.0253   57.4700 C.ar    1  ZINC000518234532   -0.1000
     11 C11        -2.8770    3.0812   56.8797 C.ar    1  ZINC000518234532   -0.0600
     12 C12        -4.2513    3.2159   56.9496 C.ar    1  ZINC000518234532   -0.1300
     13 C13        -4.8084    4.2952   57.6095 C.ar    1  ZINC000518234532   -0.0900
     14 C14        -3.9919    5.2411   58.2003 C.ar    1  ZINC000518234532   -0.1600
     15 C15        -2.6158    5.1037   58.1366 C.ar    1  ZINC000518234532    0.1000
     16 F16        -1.8168    6.0277   58.7138 F       1  ZINC000518234532   -0.1400
     17 C17        -1.4813    3.6918   52.6751 C.ar    1  ZINC000518234532   -0.0600
     18 C18        -2.8449    3.6731   52.8985 C.ar    1  ZINC000518234532   -0.1100
     19 C19        -3.6804    2.9737   52.0402 C.ar    1  ZINC000518234532    0.0800
     20 C20        -3.1431    2.2938   50.9538 C.ar    1  ZINC000518234532    0.0600
     21 C21        -1.7736    2.3151   50.7352 C.ar    1  ZINC000518234532   -0.0800
     22 C22        -0.9463    3.0173   51.5922 C.ar    1  ZINC000518234532   -0.0800
     23 Br23        0.9202    3.0454   51.2908 Br      1  ZINC000518234532   -0.0300
     24 O24        -3.9460    1.6080   50.0950 O.3     1  ZINC000518234532   -0.3000
     25 C25        -5.2664    1.3003   50.5551 C.3     1  ZINC000518234532    0.0200
     26 C26        -5.8622    2.5655   51.1872 C.3     1  ZINC000518234532    0.0200
     27 O27        -5.0211    2.9613   52.2760 O.3     1  ZINC000518234532   -0.3000
     28 H28         0.0217    6.4952   53.9463 H       1  ZINC000518234532    0.0700
     29 H29        -0.3048    6.0964   52.2426 H       1  ZINC000518234532    0.0700
     30 H30        -1.6558    6.3038   53.3827 H       1  ZINC000518234532    0.0600
     31 H31        -1.9644    4.2277   55.1998 H       1  ZINC000518234532    0.4000
     32 H32         0.9211    2.3676   57.7969 H       1  ZINC000518234532    0.0700
     33 H33        -0.4906    2.3206   58.8801 H       1  ZINC000518234532    0.0700
     34 H34        -0.6336    1.7334   57.2059 H       1  ZINC000518234532    0.0700
     35 H35        -2.4428    2.2378   56.3632 H       1  ZINC000518234532    0.1300
     36 H36        -4.8900    2.4775   56.4879 H       1  ZINC000518234532    0.1300
     37 H37        -5.8820    4.3996   57.6631 H       1  ZINC000518234532    0.1300
     38 H38        -4.4274    6.0846   58.7153 H       1  ZINC000518234532    0.1400
     39 H39        -3.2605    4.2033   53.7426 H       1  ZINC000518234532    0.1400
     40 H40        -1.3534    1.7858   49.8929 H       1  ZINC000518234532    0.1500
     41 H41        -5.8840    0.9834   49.7146 H       1  ZINC000518234532    0.1300
     42 H42        -5.2204    0.5046   51.2986 H       1  ZINC000518234532    0.0800
     43 H43        -5.9026    3.3630   50.4452 H       1  ZINC000518234532    0.0800
     44 H44        -6.8659    2.3545   51.5558 H       1  ZINC000518234532    0.1300
@<TRIPOS>BOND
     1     1     2    1
     2     1    28    1
     3     1    29    1
     4     1    30    1
     5     2     3    1
     6     2     4    1
     7     2    17    1
     8     4     5   am
     9     4    31    1
    10     5     6    2
    11     5     7    1
    12     7     8    1
    13     7     9    1
    14     7    10    1
    15     9    32    1
    16     9    33    1
    17     9    34    1
    18    10    15   ar
    19    10    11   ar
    20    11    12   ar
    21    11    35    1
    22    12    13   ar
    23    12    36    1
    24    13    14   ar
    25    13    37    1
    26    14    15   ar
    27    14    38    1
    28    15    16    1
    29    17    22   ar
    30    17    18   ar
    31    18    19   ar
    32    18    39    1
    33    19    27    1
    34    19    20   ar
    35    20    21   ar
    36    20    24    1
    37    21    22   ar
    38    21    40    1
    39    22    23    1
    40    24    25    1
    41    25    26    1
    42    25    41    1
    43    25    42    1
    44    26    27    1
    45    26    43    1
    46    26    44    1
@<TRIPOS>SUBSTRUCTURE
     1 ZINC000518234532        1 TEMP              0 ****  ****    0 ROOT


##########                                Name:    ZINC001078748831
##########                DOCK_Rotatable_Bonds:                   6
##########                         Heavy_Atoms:                  23
##########                    Molecular_Weight:             333.417
##########                DOCK_Rotatable_Bonds:                   6
##########                       Formal_Charge:           0.0299999
##########                     HBond_Acceptors:                   9
##########                        HBond_Donors:                   2
##########                         Heavy_Atoms:                  23
##########                          Grid_Score:          -28.754370
##########                     Grid_vdw_energy:          -27.933172
##########                      Grid_es_energy:           -0.821198
##########           Internal_energy_repulsive:            6.607792

@<TRIPOS>MOLECULE
ZINC001078748831
 42 45 1 0 0
SMALL
USER_CHARGES


@<TRIPOS>ATOM
      1 C1         -8.8524    0.7219   60.5606 C.3     1  ZINC001078748831    0.1000
      2 N2         -8.2534    0.9871   59.2502 N.pl3   1  ZINC001078748831   -0.1400
      3 N3         -7.0540    1.4130   59.0720 N.2     1  ZINC001078748831   -0.2900
      4 C4         -6.8330    1.5446   57.7861 C.2     1  ZINC001078748831    0.0400
      5 C5         -8.0284    1.1545   57.1500 C.2     1  ZINC001078748831   -0.0500
      6 C6         -8.2988    1.1212   55.6973 C.2     1  ZINC001078748831    0.6200
      7 O7         -9.0799    0.3080   55.2430 O.2     1  ZINC001078748831   -0.5200
      8 N8         -7.6793    1.9923   54.8764 N.am    1  ZINC001078748831   -0.7000
      9 C9         -7.9461    1.9581   53.4362 C.3     1  ZINC001078748831    0.1500
     10 H10        -8.9765    1.6907   53.2022 H       1  ZINC001078748831    0.1100
     11 C11        -6.9031    1.1593   52.6335 C.3     1  ZINC001078748831   -0.1800
     12 C12        -6.1131    2.4731   52.4922 C.3     1  ZINC001078748831    0.0800
     13 H13        -5.3994    2.6434   53.2983 H       1  ZINC001078748831    0.1000
     14 N14        -5.5267    2.6680   51.1595 N.3     1  ZINC001078748831   -0.6700
     15 C15        -4.5293    1.6301   50.8662 C.3     1  ZINC001078748831    0.1400
     16 C16        -3.1450    2.2042   51.0253 C.2     1  ZINC001078748831    0.0600
     17 N17        -2.1704    1.9962   50.1841 N.2     1  ZINC001078748831   -0.5700
     18 S18        -0.9078    2.7564   50.6956 S.3     1  ZINC001078748831    0.6800
     19 N19        -1.5150    3.3809   51.9897 N.2     1  ZINC001078748831   -0.5700
     20 C20        -2.7642    3.0160   52.0759 C.2     1  ZINC001078748831    0.0500
     21 C21        -7.4488    3.1968   52.6904 C.3     1  ZINC001078748831   -0.1000
     22 C22        -8.2220    3.7692   51.5018 C.3     1  ZINC001078748831   -0.1000
     23 C23        -8.7673    4.8278   52.4776 C.3     1  ZINC001078748831   -0.1400
     24 C24        -7.5091    4.5841   53.3305 C.3     1  ZINC001078748831   -0.1200
     25 N25        -8.8568    0.8190   58.1272 N.2     1  ZINC001078748831   -0.2500
     26 H26        -8.6582   -0.3119   60.8464 H       1  ZINC001078748831    0.1000
     27 H27        -8.4163    1.3918   61.3018 H       1  ZINC001078748831    0.1100
     28 H28        -9.9284    0.8886   60.5087 H       1  ZINC001078748831    0.1100
     29 H29        -5.9231    1.8826   57.3126 H       1  ZINC001078748831    0.2100
     30 H30        -7.0570    2.6418   55.2390 H       1  ZINC001078748831    0.4100
     31 H31        -6.3867    0.4012   53.2225 H       1  ZINC001078748831    0.0700
     32 H32        -7.2826    0.7748   51.6868 H       1  ZINC001078748831    0.1000
     33 H33        -6.2429    2.6921   50.4493 H       1  ZINC001078748831    0.3500
     34 H34        -4.6586    0.7966   51.5566 H       1  ZINC001078748831    0.1000
     35 H35        -4.6612    1.2782   49.8430 H       1  ZINC001078748831    0.0600
     36 H36        -3.4232    3.3098   52.8795 H       1  ZINC001078748831    0.2000
     37 H37        -7.5823    4.1816   50.7216 H       1  ZINC001078748831    0.1000
     38 H38        -8.9870    3.0973   51.1131 H       1  ZINC001078748831    0.0700
     39 H39        -8.8174    5.8295   52.0507 H       1  ZINC001078748831    0.0700
     40 H40        -9.6927    4.5306   52.9708 H       1  ZINC001078748831    0.0800
     41 H41        -7.7047    4.5631   54.4026 H       1  ZINC001078748831    0.0700
     42 H42        -6.6690    5.2256   53.0643 H       1  ZINC001078748831    0.0900
@<TRIPOS>BOND
     1     1     2    1
     2     1    26    1
     3     1    27    1
     4     1    28    1
     5     2    25    1
     6     2     3    1
     7     3     4    2
     8     4     5    1
     9     4    29    1
    10     5     6    1
    11     5    25    2
    12     6     7    2
    13     6     8   am
    14     8     9    1
    15     8    30    1
    16     9    10    1
    17     9    21    1
    18     9    11    1
    19    11    12    1
    20    11    31    1
    21    11    32    1
    22    12    13    1
    23    12    14    1
    24    12    21    1
    25    14    15    1
    26    14    33    1
    27    15    16    1
    28    15    34    1
    29    15    35    1
    30    16    20    1
    31    16    17    2
    32    17    18    1
    33    18    19    1
    34    19    20    2
    35    20    36    1
    36    21    24    1
    37    21    22    1
    38    22    23    1
    39    22    37    1
    40    22    38    1
    41    23    24    1
    42    23    39    1
    43    23    40    1
    44    24    41    1
    45    24    42    1
@<TRIPOS>SUBSTRUCTURE
     1 ZINC001078748831        1 TEMP              0 ****  ****    0 ROOT


##########                                Name:    ZINC000440379747
##########                DOCK_Rotatable_Bonds:                   8
##########                         Heavy_Atoms:                  27
##########                    Molecular_Weight:             394.452
##########                DOCK_Rotatable_Bonds:                   8
##########                       Formal_Charge:           0.0199995
##########                     HBond_Acceptors:                  10
##########                        HBond_Donors:                   3
##########                         Heavy_Atoms:                  27
##########                          Grid_Score:          -28.742613
##########                     Grid_vdw_energy:          -27.822222
##########                      Grid_es_energy:           -0.920391
##########           Internal_energy_repulsive:           30.861280

@<TRIPOS>MOLECULE
ZINC000440379747
 49 51 1 0 0
SMALL
USER_CHARGES


@<TRIPOS>ATOM
      1 C1          2.1294    2.0185   48.5020 C.3     1  ZINC000440379747   -0.1800
      2 C2          0.7199    2.0166   49.0353 C.2     1  ZINC000440379747    0.5200
      3 O3         -0.1661    1.4784   48.4054 O.2     1  ZINC000440379747   -0.5200
      4 N4          0.4438    2.6130   50.2120 N.am    1  ZINC000440379747   -0.5500
      5 C5          1.4262    3.2932   51.0600 C.3     1  ZINC000440379747    0.1100
      6 C6          0.6299    3.8005   52.2732 C.3     1  ZINC000440379747   -0.0900
      7 C7         -0.7908    3.3537   52.0108 C.ar    1  ZINC000440379747   -0.1100
      8 C8         -1.9431    3.5229   52.7521 C.ar    1  ZINC000440379747   -0.0700
      9 C9         -3.1494    3.0109   52.2910 C.ar    1  ZINC000440379747    0.1200
     10 N10        -4.3175    3.1817   53.0403 N.am    1  ZINC000440379747   -0.6400
     11 C11        -5.0919    4.2670   52.8432 C.2     1  ZINC000440379747    0.5100
     12 O12        -4.7752    5.0962   52.0152 O.2     1  ZINC000440379747   -0.4900
     13 C13        -6.3394    4.4495   53.6435 C.2     1  ZINC000440379747    0.5200
     14 O14        -7.3964    4.6512   53.0822 O.2     1  ZINC000440379747   -0.5100
     15 N15        -6.2916    4.3900   54.9891 N.am    1  ZINC000440379747   -0.5800
     16 C16        -5.0808    4.1527   55.7961 C.3     1  ZINC000440379747    0.1000
     17 C17        -5.3971    4.7763   57.1784 C.3     1  ZINC000440379747   -0.1300
     18 C18        -6.9020    4.4339   57.3377 C.3     1  ZINC000440379747   -0.1600
     19 C19        -7.4370    4.5575   55.8954 C.3     1  ZINC000440379747    0.1500
     20 H20        -7.8900    5.5383   55.7509 H       1  ZINC000440379747    0.1000
     21 C21        -8.4714    3.4623   55.6285 C.3     1  ZINC000440379747   -0.6500
     22 S22        -7.6223    1.8840   55.3479 S.o2    1  ZINC000440379747    2.6200
     23 N23        -8.8446    0.7736   55.2238 N.am    1  ZINC000440379747   -1.2500
     24 O24        -7.0051    1.8704   54.0681 O.2     1  ZINC000440379747   -0.9500
     25 O25        -6.9070    1.4892   56.5105 O.2     1  ZINC000440379747   -0.9500
     26 C26        -3.1895    2.3287   51.0815 C.ar    1  ZINC000440379747   -0.1000
     27 C27        -2.0383    2.1611   50.3433 C.ar    1  ZINC000440379747   -0.1400
     28 C28        -0.8246    2.6788   50.8001 C.ar    1  ZINC000440379747    0.1400
     29 H29         2.1573    1.4933   47.5474 H       1  ZINC000440379747    0.1000
     30 H30         2.4631    3.0465   48.3610 H       1  ZINC000440379747    0.1000
     31 H31         2.7871    1.5172   49.2120 H       1  ZINC000440379747    0.1000
     32 H32         2.1981    2.5933   51.3802 H       1  ZINC000440379747    0.0900
     33 H33         1.8730    4.1306   50.5240 H       1  ZINC000440379747    0.0900
     34 H34         1.0069    3.3491   53.1910 H       1  ZINC000440379747    0.0900
     35 H35         0.6815    4.8875   52.3341 H       1  ZINC000440379747    0.1000
     36 H36        -1.9066    4.0537   53.6919 H       1  ZINC000440379747    0.1400
     37 H37        -4.5705    2.5191   53.7021 H       1  ZINC000440379747    0.4200
     38 H38        -4.8951    3.0833   55.8959 H       1  ZINC000440379747    0.0800
     39 H39        -4.2209    4.6473   55.3445 H       1  ZINC000440379747    0.1000
     40 H40        -4.8044    4.3070   57.9636 H       1  ZINC000440379747    0.1000
     41 H41        -5.2411    5.8551   57.1653 H       1  ZINC000440379747    0.0800
     42 H42        -7.0289    3.4190   57.7142 H       1  ZINC000440379747    0.1000
     43 H43        -7.3941    5.1536   57.9920 H       1  ZINC000440379747    0.1000
     44 H44        -9.1338    3.3706   56.4892 H       1  ZINC000440379747    0.1500
     45 H45        -9.0561    3.7222   54.7460 H       1  ZINC000440379747    0.1400
     46 H46        -8.6369   -0.1611   55.0684 H       1  ZINC000440379747    0.4100
     47 H47        -9.7683    1.0579   55.3065 H       1  ZINC000440379747    0.4200
     48 H48        -4.1249    1.9286   50.7193 H       1  ZINC000440379747    0.1400
     49 H49        -2.0756    1.6295   49.4039 H       1  ZINC000440379747    0.1500
@<TRIPOS>BOND
     1     1     2    1
     2     1    29    1
     3     1    30    1
     4     1    31    1
     5     2     3    2
     6     2     4   am
     7     4    28    1
     8     4     5    1
     9     5     6    1
    10     5    32    1
    11     5    33    1
    12     6     7    1
    13     6    34    1
    14     6    35    1
    15     7    28   ar
    16     7     8   ar
    17     8     9   ar
    18     8    36    1
    19     9    10    1
    20     9    26   ar
    21    10    11   am
    22    10    37    1
    23    11    12    2
    24    11    13    1
    25    13    14    2
    26    13    15   am
    27    15    19    1
    28    15    16    1
    29    16    17    1
    30    16    38    1
    31    16    39    1
    32    17    18    1
    33    17    40    1
    34    17    41    1
    35    18    19    1
    36    18    42    1
    37    18    43    1
    38    19    20    1
    39    19    21    1
    40    21    22    1
    41    21    44    1
    42    21    45    1
    43    22    23   am
    44    22    24    2
    45    22    25    2
    46    23    46    1
    47    23    47    1
    48    26    27   ar
    49    26    48    1
    50    27    28   ar
    51    27    49    1
@<TRIPOS>SUBSTRUCTURE
     1 ZINC000440379747        1 TEMP              0 ****  ****    0 ROOT


##########                                Name:    ZINC000461678839
##########                DOCK_Rotatable_Bonds:                   6
##########                         Heavy_Atoms:                  28
##########                    Molecular_Weight:             404.939
##########                DOCK_Rotatable_Bonds:                   6
##########                       Formal_Charge:          -0.0200003
##########                     HBond_Acceptors:                   7
##########                        HBond_Donors:                   0
##########                         Heavy_Atoms:                  28
##########                          Grid_Score:          -28.676323
##########                     Grid_vdw_energy:          -28.759655
##########                      Grid_es_energy:            0.083332
##########           Internal_energy_repulsive:           11.258768

@<TRIPOS>MOLECULE
ZINC000461678839
 57 60 1 0 0
SMALL
USER_CHARGES


@<TRIPOS>ATOM
      1 C1        -16.7134   -2.4422   59.7651 C.3     1  ZINC000461678839   -0.1500
      2 C2        -15.9177   -2.2805   58.4683 C.3     1  ZINC000461678839   -0.0900
      3 H3        -16.5839   -2.4400   57.6204 H       1  ZINC000461678839    0.0700
      4 C4        -14.7930   -3.3395   58.4317 C.3     1  ZINC000461678839   -0.1100
      5 C5        -14.3020   -3.4793   57.0155 C.3     1  ZINC000461678839   -0.1200
      6 C6        -13.1160   -2.5513   56.6974 C.3     1  ZINC000461678839    0.0600
      7 N7        -13.2742   -1.1879   57.2496 N.3     1  ZINC000461678839   -0.4600
      8 C8        -12.3312   -0.3236   56.7164 C.2     1  ZINC000461678839    0.3700
      9 N9        -12.4825    0.4405   55.6604 N.2     1  ZINC000461678839   -0.3100
     10 N10       -11.4072    1.1126   55.4502 N.2     1  ZINC000461678839   -0.2500
     11 C11       -10.5137    0.8195   56.3520 C.2     1  ZINC000461678839    0.1700
     12 C12        -9.1242    1.3944   56.4526 C.3     1  ZINC000461678839    0.1500
     13 O13        -8.8850    2.2595   55.3407 O.3     1  ZINC000461678839   -0.3100
     14 C14        -8.2184    1.7314   54.2804 C.ar    1  ZINC000461678839    0.1400
     15 C15        -7.0815    2.3588   53.7924 C.ar    1  ZINC000461678839   -0.2000
     16 C16        -6.4055    1.8206   52.7145 C.ar    1  ZINC000461678839   -0.0700
     17 C17        -6.8618    0.6568   52.1215 C.ar    1  ZINC000461678839   -0.0700
     18 Cl18       -6.0109   -0.0174   50.7669 Cl      1  ZINC000461678839   -0.0700
     19 C19        -7.9954    0.0292   52.6071 C.ar    1  ZINC000461678839   -0.0700
     20 C20        -8.6709    0.5613   53.6883 C.ar    1  ZINC000461678839   -0.1400
     21 N21       -11.0723   -0.1020   57.1938 N.pl3   1  ZINC000461678839   -0.4600
     22 C22       -10.4460   -0.7280   58.3608 C.3     1  ZINC000461678839    0.1200
     23 C23       -10.2997    0.3072   59.4778 C.3     1  ZINC000461678839   -0.1400
     24 H24       -10.0055    1.2725   59.0658 H       1  ZINC000461678839    0.0900
     25 C25        -9.2677   -0.1709   60.5279 C.3     1  ZINC000461678839   -0.1500
     26 C26        -9.9391    0.2524   61.8592 C.3     1  ZINC000461678839    0.0500
     27 O27       -11.3429    0.0149   61.6189 O.3     1  ZINC000461678839   -0.3700
     28 C28       -11.6158    0.4368   60.2689 C.3     1  ZINC000461678839    0.0400
     29 C29       -14.6069   -0.6545   57.1017 C.3     1  ZINC000461678839    0.0700
     30 C30       -15.3820   -0.9253   58.4044 C.3     1  ZINC000461678839   -0.1100
     31 H31       -17.5208   -1.7103   59.7896 H       1  ZINC000461678839    0.0500
     32 H32       -17.1327   -3.4473   59.8112 H       1  ZINC000461678839    0.0500
     33 H33       -16.0536   -2.2842   60.6182 H       1  ZINC000461678839    0.0600
     34 H34       -13.9711   -3.0216   59.0733 H       1  ZINC000461678839    0.0700
     35 H35       -15.1811   -4.2967   58.7797 H       1  ZINC000461678839    0.0700
     36 H36       -13.9939   -4.5119   56.8511 H       1  ZINC000461678839    0.0800
     37 H37       -15.1216   -3.2474   56.3353 H       1  ZINC000461678839    0.0700
     38 H38       -12.2074   -2.9917   57.1082 H       1  ZINC000461678839    0.0700
     39 H39       -13.0084   -2.4798   55.6151 H       1  ZINC000461678839    0.0500
     40 H40        -9.0314    1.9601   57.3796 H       1  ZINC000461678839    0.0800
     41 H41        -8.3947    0.5845   56.4465 H       1  ZINC000461678839    0.1000
     42 H42        -6.7254    3.2676   54.2545 H       1  ZINC000461678839    0.1400
     43 H43        -5.5202    2.3088   52.3343 H       1  ZINC000461678839    0.1400
     44 H44        -8.3499   -0.8793   52.1432 H       1  ZINC000461678839    0.1400
     45 H45        -9.5557    0.0712   54.0671 H       1  ZINC000461678839    0.1400
     46 H46       -11.0685   -1.5525   58.7087 H       1  ZINC000461678839    0.1100
     47 H47        -9.4619   -1.1071   58.0854 H       1  ZINC000461678839    0.1000
     48 H48        -9.1400   -1.2525   60.4834 H       1  ZINC000461678839    0.0800
     49 H49        -8.3130    0.3379   60.3949 H       1  ZINC000461678839    0.0900
     50 H50        -9.5809   -0.3650   62.6831 H       1  ZINC000461678839    0.1000
     51 H51        -9.7577    1.3079   62.0620 H       1  ZINC000461678839    0.0600
     52 H52       -11.9531    1.4733   60.2655 H       1  ZINC000461678839    0.0500
     53 H53       -12.3782   -0.2047   59.8270 H       1  ZINC000461678839    0.1100
     54 H54       -14.5548    0.4192   56.9212 H       1  ZINC000461678839    0.0900
     55 H55       -15.1079   -1.1441   56.2667 H       1  ZINC000461678839    0.0600
     56 H56       -16.2082   -0.2179   58.4759 H       1  ZINC000461678839    0.0700
     57 H57       -14.7134   -0.7691   59.2510 H       1  ZINC000461678839    0.0700
@<TRIPOS>BOND
     1     1     2    1
     2     1    31    1
     3     1    32    1
     4     1    33    1
     5     2     3    1
     6     2    30    1
     7     2     4    1
     8     4     5    1
     9     4    34    1
    10     4    35    1
    11     5     6    1
    12     5    36    1
    13     5    37    1
    14     6     7    1
    15     6    38    1
    16     6    39    1
    17     7     8    1
    18     7    29    1
    19     8    21    1
    20     8     9    2
    21     9    10    1
    22    10    11    2
    23    11    12    1
    24    11    21    1
    25    12    13    1
    26    12    40    1
    27    12    41    1
    28    13    14    1
    29    14    20   ar
    30    14    15   ar
    31    15    16   ar
    32    15    42    1
    33    16    17   ar
    34    16    43    1
    35    17    18    1
    36    17    19   ar
    37    19    20   ar
    38    19    44    1
    39    20    45    1
    40    21    22    1
    41    22    23    1
    42    22    46    1
    43    22    47    1
    44    23    24    1
    45    23    28    1
    46    23    25    1
    47    25    26    1
    48    25    48    1
    49    25    49    1
    50    26    27    1
    51    26    50    1
    52    26    51    1
    53    27    28    1
    54    28    52    1
    55    28    53    1
    56    29    30    1
    57    29    54    1
    58    29    55    1
    59    30    56    1
    60    30    57    1
@<TRIPOS>SUBSTRUCTURE
     1 ZINC000461678839        1 TEMP              0 ****  ****    0 ROOT


##########                                Name:    ZINC000566738344
##########                DOCK_Rotatable_Bonds:                   5
##########                         Heavy_Atoms:                  23
##########                    Molecular_Weight:             352.478
##########                DOCK_Rotatable_Bonds:                   5
##########                       Formal_Charge:           0.0100005
##########                     HBond_Acceptors:                   7
##########                        HBond_Donors:                   0
##########                         Heavy_Atoms:                  23
##########                          Grid_Score:          -28.626419
##########                     Grid_vdw_energy:          -27.640905
##########                      Grid_es_energy:           -0.985513
##########           Internal_energy_repulsive:           26.669052

@<TRIPOS>MOLECULE
ZINC000566738344
 43 44 1 0 0
SMALL
USER_CHARGES


@<TRIPOS>ATOM
      1 C1         -5.4246    2.8218   51.7825 C.3     1  ZINC000566738344   -0.1300
      2 C2         -6.4852    2.0954   52.5688 C.ar    1  ZINC000566738344   -0.0100
      3 C3         -7.0721    2.7007   53.6561 C.ar    1  ZINC000566738344   -0.1000
      4 C4         -8.0520    2.0297   54.3837 C.ar    1  ZINC000566738344   -0.0500
      5 S5         -8.8008    2.8081   55.7758 S.3     1  ZINC000566738344   -0.0300
      6 C6         -8.2542    1.7756   57.1637 C.3     1  ZINC000566738344   -0.1200
      7 H7         -7.3008    1.3090   56.9160 H       1  ZINC000566738344    0.1200
      8 C8         -8.0876    2.6451   58.4115 C.3     1  ZINC000566738344   -0.1300
      9 C9         -9.2825    0.7066   57.4299 C.2     1  ZINC000566738344    0.5200
     10 O10       -10.3894    0.7950   56.9423 O.2     1  ZINC000566738344   -0.5000
     11 N11        -8.9721   -0.3477   58.2099 N.am    1  ZINC000566738344   -0.6000
     12 C12        -7.6356   -0.4536   58.8005 C.3     1  ZINC000566738344    0.0600
     13 C13        -9.9711   -1.3878   58.4674 C.3     1  ZINC000566738344    0.1500
     14 H14        -9.5253   -2.1847   59.0626 H       1  ZINC000566738344    0.1300
     15 C15       -11.1652   -0.7819   59.2257 C.3     1  ZINC000566738344   -0.1300
     16 C16       -12.3049   -1.8316   59.1698 C.3     1  ZINC000566738344   -0.5900
     17 S17       -12.2209   -2.4195   57.4357 S.o2    1  ZINC000566738344    2.4000
     18 O18       -12.3497   -3.8344   57.4115 O.2     1  ZINC000566738344   -0.9300
     19 O19       -13.0689   -1.6176   56.6251 O.2     1  ZINC000566738344   -0.9300
     20 C20       -10.4784   -1.9619   57.1297 C.3     1  ZINC000566738344   -0.6200
     21 C21        -8.4416    0.7453   54.0131 C.ar    1  ZINC000566738344   -0.1400
     22 C22        -7.8583    0.1345   52.9265 C.ar    1  ZINC000566738344   -0.0400
     23 C23        -6.8780    0.8074   52.1908 C.ar    1  ZINC000566738344   -0.0400
     24 C24        -6.2692    0.1746   51.0596 C.1     1  ZINC000566738344    0.2500
     25 N25        -5.7861   -0.3273   50.1622 N.1     1  ZINC000566738344   -0.4100
     26 H26        -5.8940    3.3968   50.9843 H       1  ZINC000566738344    0.0800
     27 H27        -4.8798    3.4957   52.4436 H       1  ZINC000566738344    0.0800
     28 H28        -4.7329    2.0984   51.3508 H       1  ZINC000566738344    0.0700
     29 H29        -6.7724    3.6969   53.9459 H       1  ZINC000566738344    0.1400
     30 H30        -9.0581    3.0406   58.7110 H       1  ZINC000566738344    0.0800
     31 H31        -7.6749    2.0432   59.2213 H       1  ZINC000566738344    0.0800
     32 H32        -7.4109    3.4707   58.1913 H       1  ZINC000566738344    0.0900
     33 H33        -7.6286    0.0366   59.7741 H       1  ZINC000566738344    0.0700
     34 H34        -7.3739   -1.5048   58.9211 H       1  ZINC000566738344    0.0800
     35 H35        -6.9098    0.0287   58.1458 H       1  ZINC000566738344    0.0800
     36 H36       -10.8889   -0.5858   60.2617 H       1  ZINC000566738344    0.1100
     37 H37       -11.4842    0.1417   58.7427 H       1  ZINC000566738344    0.0900
     38 H38       -12.1128   -2.6487   59.8651 H       1  ZINC000566738344    0.1400
     39 H39       -13.2694   -1.3667   59.3744 H       1  ZINC000566738344    0.1400
     40 H40       -10.4173   -1.2077   56.3450 H       1  ZINC000566738344    0.1400
     41 H41        -9.8984   -2.8430   56.8549 H       1  ZINC000566738344    0.1500
     42 H42        -9.2020    0.2278   54.5791 H       1  ZINC000566738344    0.1200
     43 H43        -8.1606   -0.8619   52.6398 H       1  ZINC000566738344    0.1400
@<TRIPOS>BOND
     1     1     2    1
     2     1    26    1
     3     1    27    1
     4     1    28    1
     5     2    23   ar
     6     2     3   ar
     7     3     4   ar
     8     3    29    1
     9     4     5    1
    10     4    21   ar
    11     5     6    1
    12     6     7    1
    13     6     8    1
    14     6     9    1
    15     8    30    1
    16     8    31    1
    17     8    32    1
    18     9    10    2
    19     9    11   am
    20    11    12    1
    21    11    13    1
    22    12    33    1
    23    12    34    1
    24    12    35    1
    25    13    14    1
    26    13    20    1
    27    13    15    1
    28    15    16    1
    29    15    36    1
    30    15    37    1
    31    16    17    1
    32    16    38    1
    33    16    39    1
    34    17    18    2
    35    17    19    2
    36    17    20    1
    37    20    40    1
    38    20    41    1
    39    21    22   ar
    40    21    42    1
    41    22    23   ar
    42    22    43    1
    43    23    24    1
    44    24    25    3
@<TRIPOS>SUBSTRUCTURE
     1 ZINC000566738344        1 TEMP              0 ****  ****    0 ROOT


##########                                Name:    ZINC001362451754
##########                DOCK_Rotatable_Bonds:                   6
##########                         Heavy_Atoms:                  22
##########                    Molecular_Weight:             339.846
##########                DOCK_Rotatable_Bonds:                   6
##########                       Formal_Charge:         -0.00999987
##########                     HBond_Acceptors:                   7
##########                        HBond_Donors:                   1
##########                         Heavy_Atoms:                  22
##########                          Grid_Score:          -28.609320
##########                     Grid_vdw_energy:          -28.111597
##########                      Grid_es_energy:           -0.497723
##########           Internal_energy_repulsive:           15.044005

@<TRIPOS>MOLECULE
ZINC001362451754
 40 42 1 0 0
SMALL
USER_CHARGES


@<TRIPOS>ATOM
      1 C1        -10.2921    0.5339   56.8482 C.3     1  ZINC001362451754   -0.1700
      2 C2         -9.6341    1.8668   56.4857 C.3     1  ZINC001362451754    0.1400
      3 H3        -10.3973    2.6022   56.2310 H       1  ZINC001362451754    0.0800
      4 C4         -8.7904    2.3759   57.6734 C.3     1  ZINC001362451754   -0.1000
      5 H5         -8.8367    3.4628   57.7414 H       1  ZINC001362451754    0.1000
      6 C6         -9.2518    1.7300   58.9814 C.3     1  ZINC001362451754    0.0900
      7 O7         -8.5186    2.2889   60.0732 O.3     1  ZINC001362451754   -0.5700
      8 C8         -7.3569    1.9094   57.3065 C.3     1  ZINC001362451754   -0.1200
      9 C9         -7.3605    2.0670   55.7676 C.3     1  ZINC001362451754    0.0900
     10 N10        -8.7202    1.6805   55.3492 N.am    1  ZINC001362451754   -0.6100
     11 C11        -9.0671    1.2261   54.1286 C.2     1  ZINC001362451754    0.6100
     12 O12       -10.2254    0.9357   53.8940 O.2     1  ZINC001362451754   -0.5200
     13 C13        -8.0491    1.0815   53.0839 C.2     1  ZINC001362451754   -0.2500
     14 C14        -7.5315   -0.1026   52.6399 C.2     1  ZINC001362451754   -0.0500
     15 C15        -6.5852    0.0529   51.6549 C.2     1  ZINC001362451754   -0.1100
     16 C16        -6.3425    1.3189   51.2957 C.2     1  ZINC001362451754   -0.2500
     17 C17        -5.3521    1.7316   50.2376 C.3     1  ZINC001362451754    0.2100
     18 N18        -4.1231    2.2069   50.8778 N.pl3   1  ZINC001362451754   -0.3700
     19 C19        -2.8969    2.2457   50.3134 C.2     1  ZINC001362451754    0.0700
     20 C20        -2.0374    2.7514   51.2289 C.2     1  ZINC001362451754   -0.1800
     21 Cl21       -0.3364    3.0112   50.9990 Cl      1  ZINC001362451754   -0.0400
     22 C22        -2.7615    3.0219   52.3954 C.2     1  ZINC001362451754    0.0700
     23 N23        -4.0112    2.6960   52.1858 N.2     1  ZINC001362451754   -0.2700
     24 S24        -7.2981    2.4041   52.2014 S.3     1  ZINC001362451754    0.2300
     25 H25        -9.5215   -0.1963   57.0952 H       1  ZINC001362451754    0.0600
     26 H26       -10.9481    0.6744   57.7073 H       1  ZINC001362451754    0.0700
     27 H27       -10.8753    0.1742   56.0006 H       1  ZINC001362451754    0.0700
     28 H28       -10.3159    1.9182   59.1240 H       1  ZINC001362451754    0.0500
     29 H29        -9.0756    0.6552   58.9377 H       1  ZINC001362451754    0.0500
     30 H30        -7.5897    2.0216   60.1010 H       1  ZINC001362451754    0.3800
     31 H31        -6.6069    2.5538   57.7652 H       1  ZINC001362451754    0.0900
     32 H32        -7.2003    0.8684   57.5895 H       1  ZINC001362451754    0.0800
     33 H33        -6.6220    1.4046   55.3162 H       1  ZINC001362451754    0.0800
     34 H34        -7.1596    3.1029   55.4943 H       1  ZINC001362451754    0.0800
     35 H35        -7.8326   -1.0647   53.0274 H       1  ZINC001362451754    0.1600
     36 H36        -6.0775   -0.7856   51.2015 H       1  ZINC001362451754    0.1500
     37 H37        -5.1229    0.8768   49.6012 H       1  ZINC001362451754    0.1100
     38 H38        -5.7790    2.5312   49.6322 H       1  ZINC001362451754    0.1100
     39 H39        -2.6472    1.9319   49.3106 H       1  ZINC001362451754    0.1800
     40 H40        -2.3582    3.4292   53.3108 H       1  ZINC001362451754    0.1900
@<TRIPOS>BOND
     1     1     2    1
     2     1    25    1
     3     1    26    1
     4     1    27    1
     5     2     3    1
     6     2    10    1
     7     2     4    1
     8     4     5    1
     9     4     6    1
    10     4     8    1
    11     6     7    1
    12     6    28    1
    13     6    29    1
    14     7    30    1
    15     8     9    1
    16     8    31    1
    17     8    32    1
    18     9    10    1
    19     9    33    1
    20     9    34    1
    21    10    11   am
    22    11    12    2
    23    11    13    1
    24    13    24    1
    25    13    14    2
    26    14    15    1
    27    14    35    1
    28    15    16    2
    29    15    36    1
    30    16    17    1
    31    16    24    1
    32    17    18    1
    33    17    37    1
    34    17    38    1
    35    18    23    1
    36    18    19    1
    37    19    20    2
    38    19    39    1
    39    20    21    1
    40    20    22    1
    41    22    23    2
    42    22    40    1
@<TRIPOS>SUBSTRUCTURE
     1 ZINC001362451754        1 TEMP              0 ****  ****    0 ROOT


##########                                Name:    ZINC000894043060
##########                DOCK_Rotatable_Bonds:                  11
##########                         Heavy_Atoms:                  26
##########                    Molecular_Weight:             396.812
##########                DOCK_Rotatable_Bonds:                  11
##########                       Formal_Charge:          -0.0199999
##########                     HBond_Acceptors:                   9
##########                        HBond_Donors:                   2
##########                         Heavy_Atoms:                  26
##########                          Grid_Score:          -28.603327
##########                     Grid_vdw_energy:          -27.603720
##########                      Grid_es_energy:           -0.999606
##########           Internal_energy_repulsive:           16.219845

@<TRIPOS>MOLECULE
ZINC000894043060
 47 47 1 0 0
SMALL
USER_CHARGES


@<TRIPOS>ATOM
      1 C1         -8.1245    6.0457   54.7626 C.3     1  ZINC000894043060   -0.1700
      2 C2         -6.7523    5.8603   54.1116 C.3     1  ZINC000894043060    0.1000
      3 H3         -6.4782    6.7695   53.5765 H       1  ZINC000894043060    0.1100
      4 N4         -6.8053    4.7378   53.1718 N.am    1  ZINC000894043060   -0.7300
      5 C5         -6.0089    4.7310   52.0845 C.2     1  ZINC000894043060    0.5200
      6 O6         -5.2494    5.6549   51.8834 O.2     1  ZINC000894043060   -0.5200
      7 C7         -6.0622    3.5754   51.1187 C.3     1  ZINC000894043060   -0.1400
      8 C8         -5.3358    2.3719   51.7228 C.3     1  ZINC000894043060   -0.0200
      9 C9         -5.8993    1.0822   51.1228 C.3     1  ZINC000894043060   -0.1400
     10 C10        -6.9584    0.5234   52.0377 C.2     1  ZINC000894043060    0.5200
     11 O11        -7.1481   -0.6735   52.0858 O.2     1  ZINC000894043060   -0.5200
     12 N12        -7.6948    1.3538   52.8024 N.am    1  ZINC000894043060   -0.7300
     13 C13        -8.7232    0.8104   53.6930 C.3     1  ZINC000894043060    0.1000
     14 H14        -8.4304   -0.1873   54.0201 H       1  ZINC000894043060    0.1200
     15 C15        -8.8759    1.7224   54.9120 C.3     1  ZINC000894043060   -0.1700
     16 C16       -10.0556    0.7314   52.9451 C.3     1  ZINC000894043060    0.2600
     17 F17       -11.0376    0.2119   53.7954 F       1  ZINC000894043060   -0.1900
     18 F18       -10.4317    2.0119   52.5258 F       1  ZINC000894043060   -0.2000
     19 C19        -3.8636    2.4676   51.4156 C.ar    1  ZINC000894043060   -0.0600
     20 C20        -2.9816    2.9010   52.3879 C.ar    1  ZINC000894043060   -0.1200
     21 C21        -1.6312    2.9890   52.1067 C.ar    1  ZINC000894043060   -0.1200
     22 C22        -1.1622    2.6434   50.8518 C.ar    1  ZINC000894043060   -0.0400
     23 Cl23        0.5338    2.7532   50.4980 Cl      1  ZINC000894043060   -0.0800
     24 C24        -2.0455    2.2098   49.8791 C.ar    1  ZINC000894043060   -0.1100
     25 C25        -3.3949    2.1168   50.1632 C.ar    1  ZINC000894043060   -0.0400
     26 C26        -5.7095    5.5712   55.1933 C.3     1  ZINC000894043060    0.2600
     27 F27        -4.4549    5.4017   54.5980 F       1  ZINC000894043060   -0.2000
     28 F28        -5.6591    6.6430   56.0908 F       1  ZINC000894043060   -0.1900
     29 H29        -8.3986    5.1365   55.2977 H       1  ZINC000894043060    0.0600
     30 H30        -8.0850    6.8809   55.4618 H       1  ZINC000894043060    0.0800
     31 H31        -8.8673    6.2518   53.9920 H       1  ZINC000894043060    0.0800
     32 H32        -7.4136    3.9994   53.3321 H       1  ZINC000894043060    0.4000
     33 H33        -7.1018    3.3121   50.9242 H       1  ZINC000894043060    0.1000
     34 H34        -5.5785    3.8601   50.1844 H       1  ZINC000894043060    0.1000
     35 H35        -5.4817    2.3642   52.8030 H       1  ZINC000894043060    0.1000
     36 H36        -6.3374    1.2961   50.1479 H       1  ZINC000894043060    0.1000
     37 H37        -5.0966    0.3537   51.0084 H       1  ZINC000894043060    0.1000
     38 H38        -7.5438    2.3112   52.7630 H       1  ZINC000894043060    0.4000
     39 H39        -9.1687    2.7201   54.5848 H       1  ZINC000894043060    0.0700
     40 H40        -9.6412    1.3181   55.5746 H       1  ZINC000894043060    0.0800
     41 H41        -7.9267    1.7787   55.4448 H       1  ZINC000894043060    0.0700
     42 H42        -9.9467    0.0820   52.0765 H       1  ZINC000894043060    0.1200
     43 H43        -3.3478    3.1711   53.3673 H       1  ZINC000894043060    0.1200
     44 H44        -0.9423    3.3279   52.8663 H       1  ZINC000894043060    0.1300
     45 H45        -1.6800    1.9402   48.8992 H       1  ZINC000894043060    0.1300
     46 H46        -4.0843    1.7781   49.4041 H       1  ZINC000894043060    0.1300
     47 H47        -5.9836    4.6619   55.7283 H       1  ZINC000894043060    0.1100
@<TRIPOS>BOND
     1     1     2    1
     2     1    29    1
     3     1    30    1
     4     1    31    1
     5     2     3    1
     6     2     4    1
     7     2    26    1
     8     4     5   am
     9     4    32    1
    10     5     6    2
    11     5     7    1
    12     7     8    1
    13     7    33    1
    14     7    34    1
    15     8     9    1
    16     8    19    1
    17     8    35    1
    18     9    10    1
    19     9    36    1
    20     9    37    1
    21    10    11    2
    22    10    12   am
    23    12    13    1
    24    12    38    1
    25    13    14    1
    26    13    15    1
    27    13    16    1
    28    15    39    1
    29    15    40    1
    30    15    41    1
    31    16    17    1
    32    16    18    1
    33    16    42    1
    34    19    25   ar
    35    19    20   ar
    36    20    21   ar
    37    20    43    1
    38    21    22   ar
    39    21    44    1
    40    22    23    1
    41    22    24   ar
    42    24    25   ar
    43    24    45    1
    44    25    46    1
    45    26    27    1
    46    26    28    1
    47    26    47    1
@<TRIPOS>SUBSTRUCTURE
     1 ZINC000894043060        1 TEMP              0 ****  ****    0 ROOT


##########                                Name:    ZINC000632456679
##########                DOCK_Rotatable_Bonds:                   6
##########                         Heavy_Atoms:                  24
##########                    Molecular_Weight:              374.82
##########                DOCK_Rotatable_Bonds:                   6
##########                       Formal_Charge:          -0.0299999
##########                     HBond_Acceptors:                   9
##########                        HBond_Donors:                   1
##########                         Heavy_Atoms:                  24
##########                          Grid_Score:          -28.584871
##########                     Grid_vdw_energy:          -28.153059
##########                      Grid_es_energy:           -0.431812
##########           Internal_energy_repulsive:           31.620451

@<TRIPOS>MOLECULE
ZINC000632456679
 40 41 1 0 0
SMALL
USER_CHARGES


@<TRIPOS>ATOM
      1 C1         -7.2467    3.9693   53.5326 C.3     1  ZINC000632456679   -0.1600
      2 C2         -6.9382    3.0057   52.3848 C.3     1  ZINC000632456679    0.1900
      3 C3         -7.3440    1.5865   52.7874 C.3     1  ZINC000632456679   -0.2000
      4 C4         -7.7226    3.4269   51.1406 C.3     1  ZINC000632456679   -0.6300
      5 S5         -7.3766    5.1684   50.7687 S.o2    1  ZINC000632456679    2.4100
      6 C6         -7.9668    5.3109   49.0592 C.3     1  ZINC000632456679   -0.6600
      7 O7         -8.1953    5.9801   51.5994 O.2     1  ZINC000632456679   -0.9300
      8 O8         -5.9690    5.3627   50.7792 O.2     1  ZINC000632456679   -0.9300
      9 N9         -5.5032    3.0387   52.0920 N.am    1  ZINC000632456679   -0.7200
     10 C10        -4.9998    2.2758   51.1015 C.2     1  ZINC000632456679    0.6200
     11 O11        -5.7364    1.5590   50.4522 O.2     1  ZINC000632456679   -0.5000
     12 C12        -3.5549    2.3104   50.8054 C.2     1  ZINC000632456679   -0.0900
     13 C13        -2.5510    2.6569   51.6647 C.2     1  ZINC000632456679   -0.1300
     14 C14        -1.3720    2.5209   50.8812 C.2     1  ZINC000632456679    0.0400
     15 C15         0.0228    2.7732   51.3210 C.ar    1  ZINC000632456679   -0.0500
     16 C16         0.2911    3.7680   52.2586 C.ar    1  ZINC000632456679   -0.0600
     17 C17         1.5899    3.9991   52.6646 C.ar    1  ZINC000632456679   -0.1100
     18 C18         2.6262    3.2461   52.1428 C.ar    1  ZINC000632456679   -0.0700
     19 C19         2.3684    2.2561   51.2111 C.ar    1  ZINC000632456679   -0.0800
     20 Cl20        3.6748    1.3156   50.5611 Cl      1  ZINC000632456679   -0.0400
     21 C21         1.0696    2.0112   50.8012 C.ar    1  ZINC000632456679    0.1400
     22 F22         0.8172    1.0446   49.8917 F       1  ZINC000632456679   -0.1100
     23 N23        -1.7624    2.1281   49.6946 N.2     1  ZINC000632456679   -0.3200
     24 O24        -2.9630    2.0010   49.6363 O.3     1  ZINC000632456679    0.1400
     25 H25        -6.6880    3.6693   54.4191 H       1  ZINC000632456679    0.0900
     26 H26        -6.9576    4.9803   53.2458 H       1  ZINC000632456679    0.0600
     27 H27        -8.3144    3.9448   53.7505 H       1  ZINC000632456679    0.0700
     28 H28        -8.4117    1.5620   53.0053 H       1  ZINC000632456679    0.0800
     29 H29        -7.1243    0.9000   51.9697 H       1  ZINC000632456679    0.0800
     30 H30        -6.7853    1.2864   53.6739 H       1  ZINC000632456679    0.0900
     31 H31        -7.4223    2.8082   50.2950 H       1  ZINC000632456679    0.1600
     32 H32        -8.7895    3.2995   51.3232 H       1  ZINC000632456679    0.1400
     33 H33        -9.0287    5.0680   49.0201 H       1  ZINC000632456679    0.1300
     34 H34        -7.8141    6.3307   48.7059 H       1  ZINC000632456679    0.1300
     35 H35        -7.4124    4.6197   48.4246 H       1  ZINC000632456679    0.1300
     36 H36        -4.9153    3.6098   52.6109 H       1  ZINC000632456679    0.4200
     37 H37        -2.6335    2.9630   52.6972 H       1  ZINC000632456679    0.1900
     38 H38        -0.5160    4.3578   52.6671 H       1  ZINC000632456679    0.1500
     39 H39         1.7976    4.7704   53.3916 H       1  ZINC000632456679    0.1500
     40 H40         3.6406    3.4319   52.4637 H       1  ZINC000632456679    0.1500
@<TRIPOS>BOND
     1     1     2    1
     2     1    25    1
     3     1    26    1
     4     1    27    1
     5     2     3    1
     6     2     4    1
     7     2     9    1
     8     3    28    1
     9     3    29    1
    10     3    30    1
    11     4     5    1
    12     4    31    1
    13     4    32    1
    14     5     6    1
    15     5     7    2
    16     5     8    2
    17     6    33    1
    18     6    34    1
    19     6    35    1
    20     9    10   am
    21     9    36    1
    22    10    11    2
    23    10    12    1
    24    12    24    1
    25    12    13    2
    26    13    14    1
    27    13    37    1
    28    14    15    1
    29    14    23    2
    30    15    21   ar
    31    15    16   ar
    32    16    17   ar
    33    16    38    1
    34    17    18   ar
    35    17    39    1
    36    18    19   ar
    37    18    40    1
    38    19    20    1
    39    19    21   ar
    40    21    22    1
    41    23    24    1
@<TRIPOS>SUBSTRUCTURE
     1 ZINC000632456679        1 TEMP              0 ****  ****    0 ROOT


##########                                Name:    ZINC000579444893
##########                DOCK_Rotatable_Bonds:                   8
##########                         Heavy_Atoms:                  26
##########                    Molecular_Weight:             365.494
##########                DOCK_Rotatable_Bonds:                   8
##########                       Formal_Charge:         -0.00999993
##########                     HBond_Acceptors:                   7
##########                        HBond_Donors:                   1
##########                         Heavy_Atoms:                  26
##########                          Grid_Score:          -28.583858
##########                     Grid_vdw_energy:          -27.002939
##########                      Grid_es_energy:           -1.580919
##########           Internal_energy_repulsive:           30.493288

@<TRIPOS>MOLECULE
ZINC000579444893
 58 60 1 0 0
SMALL
USER_CHARGES


@<TRIPOS>ATOM
      1 C1         -7.1568    3.2956   51.9195 C.3     1  ZINC000579444893   -0.1600
      2 C2         -5.8400    3.5254   52.6640 C.3     1  ZINC000579444893    0.1700
      3 H3         -5.4910    4.5414   52.4799 H       1  ZINC000579444893    0.0900
      4 N4         -6.0519    3.3348   54.1010 N.am    1  ZINC000579444893   -0.7400
      5 C5         -5.4290    4.1375   54.9864 C.2     1  ZINC000579444893    0.7100
      6 O6         -4.6900    5.0192   54.5925 O.2     1  ZINC000579444893   -0.5900
      7 N7         -5.6252    3.9633   56.3083 N.am    1  ZINC000579444893   -0.6300
      8 C8         -4.9467    4.8348   57.2707 C.3     1  ZINC000579444893    0.0800
      9 C9         -6.5170    2.9023   56.7829 C.3     1  ZINC000579444893    0.1100
     10 C10        -7.9671    3.3852   56.7119 C.3     1  ZINC000579444893    0.0600
     11 H11        -8.2463    3.5687   55.6745 H       1  ZINC000579444893    0.1000
     12 C12        -8.1304    4.6794   57.5364 C.3     1  ZINC000579444893   -0.1600
     13 C13        -9.5242    4.5013   58.1941 C.3     1  ZINC000579444893    0.0800
     14 H14       -10.3199    4.7882   57.5067 H       1  ZINC000579444893    0.1000
     15 F15        -9.6113    5.2260   59.3877 F       1  ZINC000579444893   -0.2000
     16 C16        -9.5491    2.9766   58.4666 C.3     1  ZINC000579444893    0.0200
     17 N17        -8.8626    2.3724   57.3007 N.3     1  ZINC000579444893   -0.5000
     18 C18        -8.1126    1.1724   57.6951 C.3     1  ZINC000579444893    0.1000
     19 C19        -9.0766    0.0930   58.1153 C.2     1  ZINC000579444893    0.0800
     20 C20       -10.0184   -0.4838   57.3335 C.2     1  ZINC000579444893   -0.2500
     21 C21       -10.6956   -1.4337   58.1053 C.2     1  ZINC000579444893    0.0400
     22 N22       -10.1788   -1.4273   59.3073 N.2     1  ZINC000579444893   -0.2900
     23 N23        -9.1514   -0.4755   59.3368 N.pl3   1  ZINC000579444893   -0.3700
     24 C24        -8.3124   -0.1485   60.4925 C.3     1  ZINC000579444893    0.0900
     25 C25        -4.7919    2.5281   52.1663 C.3     1  ZINC000579444893   -0.1000
     26 C26        -4.7278    2.5361   50.6188 C.3     1  ZINC000579444893   -0.1200
     27 C27        -3.3032    1.9997   50.3330 C.3     1  ZINC000579444893   -0.1300
     28 C28        -2.4327    2.6292   51.4401 C.3     1  ZINC000579444893   -0.1300
     29 C29        -3.3792    2.9652   52.6058 C.3     1  ZINC000579444893   -0.1200
     30 H30        -7.9281    3.9426   52.3372 H       1  ZINC000579444893    0.0600
     31 H31        -7.0217    3.5266   50.8628 H       1  ZINC000579444893    0.0700
     32 H32        -7.4585    2.2538   52.0279 H       1  ZINC000579444893    0.0500
     33 H33        -6.6405    2.6308   54.4153 H       1  ZINC000579444893    0.4000
     34 H34        -5.5272    5.7472   57.4067 H       1  ZINC000579444893    0.0600
     35 H35        -4.8530    4.3179   58.2258 H       1  ZINC000579444893    0.0800
     36 H36        -3.9550    5.0876   56.8956 H       1  ZINC000579444893    0.0700
     37 H37        -6.3971    2.0191   56.1555 H       1  ZINC000579444893    0.0900
     38 H38        -6.2676    2.6521   57.8140 H       1  ZINC000579444893    0.0900
     39 H39        -7.3523    4.7532   58.2961 H       1  ZINC000579444893    0.1100
     40 H40        -8.1200    5.5543   56.8864 H       1  ZINC000579444893    0.0800
     41 H41        -9.0113    2.7467   59.3864 H       1  ZINC000579444893    0.0600
     42 H42       -10.5768    2.6187   58.5274 H       1  ZINC000579444893    0.0900
     43 H43        -7.5190    0.8211   56.8511 H       1  ZINC000579444893    0.1100
     44 H44        -7.4522    1.4141   58.5280 H       1  ZINC000579444893    0.0500
     45 H45       -10.2132   -0.2517   56.2969 H       1  ZINC000579444893    0.1500
     46 H46       -11.5055   -2.0632   57.7675 H       1  ZINC000579444893    0.1800
     47 H47        -7.4028   -0.7483   60.4624 H       1  ZINC000579444893    0.0800
     48 H48        -8.0512    0.9093   60.4642 H       1  ZINC000579444893    0.0800
     49 H49        -8.8591   -0.3633   61.4107 H       1  ZINC000579444893    0.0900
     50 H50        -5.0136    1.5268   52.5358 H       1  ZINC000579444893    0.0800
     51 H51        -5.4824    1.8719   50.1975 H       1  ZINC000579444893    0.0700
     52 H52        -4.8440    3.5487   50.2326 H       1  ZINC000579444893    0.0700
     53 H53        -3.2835    0.9122   50.4043 H       1  ZINC000579444893    0.0700
     54 H54        -2.9634    2.3245   49.3495 H       1  ZINC000579444893    0.0700
     55 H55        -1.6741    1.9185   51.7680 H       1  ZINC000579444893    0.0600
     56 H56        -1.9583    3.5383   51.0705 H       1  ZINC000579444893    0.0600
     57 H57        -3.3643    4.0372   52.8019 H       1  ZINC000579444893    0.0600
     58 H58        -3.0800    2.4175   53.4994 H       1  ZINC000579444893    0.0600
@<TRIPOS>BOND
     1     1     2    1
     2     1    30    1
     3     1    31    1
     4     1    32    1
     5     2     3    1
     6     2     4    1
     7     2    25    1
     8     4     5   am
     9     4    33    1
    10     5     6    2
    11     5     7   am
    12     7     8    1
    13     7     9    1
    14     8    34    1
    15     8    35    1
    16     8    36    1
    17     9    10    1
    18     9    37    1
    19     9    38    1
    20    10    11    1
    21    10    17    1
    22    10    12    1
    23    12    13    1
    24    12    39    1
    25    12    40    1
    26    13    14    1
    27    13    15    1
    28    13    16    1
    29    16    17    1
    30    16    41    1
    31    16    42    1
    32    17    18    1
    33    18    19    1
    34    18    43    1
    35    18    44    1
    36    19    23    1
    37    19    20    2
    38    20    21    1
    39    20    45    1
    40    21    22    2
    41    21    46    1
    42    22    23    1
    43    23    24    1
    44    24    47    1
    45    24    48    1
    46    24    49    1
    47    25    29    1
    48    25    26    1
    49    25    50    1
    50    26    27    1
    51    26    51    1
    52    26    52    1
    53    27    28    1
    54    27    53    1
    55    27    54    1
    56    28    29    1
    57    28    55    1
    58    28    56    1
    59    29    57    1
    60    29    58    1
@<TRIPOS>SUBSTRUCTURE
     1 ZINC000579444893        1 TEMP              0 ****  ****    0 ROOT


##########                                Name:    ZINC000558052810
##########                DOCK_Rotatable_Bonds:                   9
##########                         Heavy_Atoms:                  30
##########                    Molecular_Weight:             424.524
##########                DOCK_Rotatable_Bonds:                   9
##########                       Formal_Charge:          -0.0200002
##########                     HBond_Acceptors:                   8
##########                        HBond_Donors:                   1
##########                         Heavy_Atoms:                  30
##########                          Grid_Score:          -28.582899
##########                     Grid_vdw_energy:          -28.590494
##########                      Grid_es_energy:            0.007596
##########           Internal_energy_repulsive:           11.775203

@<TRIPOS>MOLECULE
ZINC000558052810
 54 56 1 0 0
SMALL
USER_CHARGES


@<TRIPOS>ATOM
      1 C1        -11.0101   -3.4194   57.4719 C.3     1  ZINC000558052810   -0.1700
      2 C2        -11.0712   -2.0159   56.8657 C.3     1  ZINC000558052810    0.1100
      3 N3        -11.9377   -1.1667   57.6867 N.am    1  ZINC000558052810   -0.6100
      4 C4        -13.2288   -1.6750   58.1570 C.3     1  ZINC000558052810    0.0700
      5 C5        -11.5471    0.0822   58.0095 C.2     1  ZINC000558052810    0.5600
      6 O6        -12.2661    0.7870   58.6906 O.2     1  ZINC000558052810   -0.5300
      7 C7        -10.2440    0.5951   57.5349 C.ar    1  ZINC000558052810   -0.1100
      8 C8         -9.0894    0.3774   58.2881 C.ar    1  ZINC000558052810   -0.1100
      9 C9         -7.8742    0.8573   57.8429 C.ar    1  ZINC000558052810   -0.1000
     10 C10        -7.7956    1.5544   56.6521 C.ar    1  ZINC000558052810   -0.1300
     11 C11        -8.9397    1.7769   55.8948 C.ar    1  ZINC000558052810    0.1400
     12 N12        -8.8549    2.4835   54.6905 N.am    1  ZINC000558052810   -0.6600
     13 C13        -8.6067    1.8270   53.5400 C.2     1  ZINC000558052810    0.5600
     14 O14        -8.4566    0.6201   53.5488 O.2     1  ZINC000558052810   -0.4800
     15 C15        -8.5173    2.5713   52.2714 C.ar    1  ZINC000558052810   -0.1900
     16 C16        -9.6758    2.9989   51.6128 C.ar    1  ZINC000558052810   -0.0200
     17 C17        -9.5379    3.6943   50.4245 C.ar    1  ZINC000558052810   -0.1900
     18 C18        -8.2726    3.9456   49.9244 C.ar    1  ZINC000558052810    0.1500
     19 N19        -7.1925    3.5344   50.5589 N.ar    1  ZINC000558052810   -0.4900
     20 C20        -7.2661    2.8702   51.7029 C.ar    1  ZINC000558052810    0.1600
     21 S21        -5.7895    2.3445   52.5078 S.3     1  ZINC000558052810    0.0600
     22 C22        -4.9540    3.9381   52.7042 C.3     1  ZINC000558052810   -0.0700
     23 C23        -3.6280    3.7291   53.3890 C.2     1  ZINC000558052810   -0.2000
     24 C24        -2.4635    3.3074   52.8407 C.2     1  ZINC000558052810   -0.0100
     25 C25        -2.2249    2.9443   51.3977 C.3     1  ZINC000558052810   -0.0800
     26 O26        -1.5650    3.2767   53.8350 O.3     1  ZINC000558052810    0.1000
     27 N27        -2.0527    3.6241   54.8856 N.2     1  ZINC000558052810   -0.3600
     28 C28        -3.3098    3.9341   54.7512 C.2     1  ZINC000558052810    0.0300
     29 C29        -4.2436    4.4080   55.8349 C.3     1  ZINC000558052810   -0.0800
     30 C30       -10.1638    1.2933   56.3299 C.ar    1  ZINC000558052810   -0.0700
     31 H31       -10.6086   -3.3611   58.4836 H       1  ZINC000558052810    0.0600
     32 H32       -12.0127   -3.8458   57.5029 H       1  ZINC000558052810    0.0600
     33 H33       -10.3653   -4.0512   56.8610 H       1  ZINC000558052810    0.0700
     34 H34       -10.0685   -1.5896   56.8346 H       1  ZINC000558052810    0.0800
     35 H35       -11.4726   -2.0743   55.8540 H       1  ZINC000558052810    0.0800
     36 H36       -13.0841   -2.2346   59.0810 H       1  ZINC000558052810    0.0600
     37 H37       -13.9035   -0.8388   58.3404 H       1  ZINC000558052810    0.0800
     38 H38       -13.6592   -2.3298   57.3993 H       1  ZINC000558052810    0.0700
     39 H39        -9.1467   -0.1663   59.2196 H       1  ZINC000558052810    0.1400
     40 H40        -6.9819    0.6878   58.4273 H       1  ZINC000558052810    0.1400
     41 H41        -6.8419    1.9278   56.3091 H       1  ZINC000558052810    0.1300
     42 H42        -8.9746    3.4461   54.6836 H       1  ZINC000558052810    0.4100
     43 H43       -10.6535    2.7909   52.0219 H       1  ZINC000558052810    0.1400
     44 H44       -10.4118    4.0380   49.8910 H       1  ZINC000558052810    0.1500
     45 H45        -8.1677    4.4885   48.9967 H       1  ZINC000558052810    0.1700
     46 H46        -4.7901    4.3855   51.7239 H       1  ZINC000558052810    0.1000
     47 H47        -5.5739    4.6015   53.3073 H       1  ZINC000558052810    0.1000
     48 H48        -1.9100    3.8308   50.8473 H       1  ZINC000558052810    0.0900
     49 H49        -1.4461    2.1841   51.3384 H       1  ZINC000558052810    0.0900
     50 H50        -3.1461    2.5554   50.9638 H       1  ZINC000558052810    0.0900
     51 H51        -4.2070    5.4958   55.8961 H       1  ZINC000558052810    0.0800
     52 H52        -5.2603    4.0912   55.6026 H       1  ZINC000558052810    0.0800
     53 H53        -3.9390    3.9800   56.7900 H       1  ZINC000558052810    0.0800
     54 H54       -11.0539    1.4649   55.7428 H       1  ZINC000558052810    0.1500
@<TRIPOS>BOND
     1     1     2    1
     2     1    31    1
     3     1    32    1
     4     1    33    1
     5     2     3    1
     6     2    34    1
     7     2    35    1
     8     3     4    1
     9     3     5   am
    10     4    36    1
    11     4    37    1
    12     4    38    1
    13     5     6    2
    14     5     7    1
    15     7    30   ar
    16     7     8   ar
    17     8     9   ar
    18     8    39    1
    19     9    10   ar
    20     9    40    1
    21    10    11   ar
    22    10    41    1
    23    11    12    1
    24    11    30   ar
    25    12    13   am
    26    12    42    1
    27    13    14    2
    28    13    15    1
    29    15    20   ar
    30    15    16   ar
    31    16    17   ar
    32    16    43    1
    33    17    18   ar
    34    17    44    1
    35    18    19   ar
    36    18    45    1
    37    19    20   ar
    38    20    21    1
    39    21    22    1
    40    22    23    1
    41    22    46    1
    42    22    47    1
    43    23    28    1
    44    23    24    2
    45    24    25    1
    46    24    26    1
    47    25    48    1
    48    25    49    1
    49    25    50    1
    50    26    27    1
    51    27    28    2
    52    28    29    1
    53    29    51    1
    54    29    52    1
    55    29    53    1
    56    30    54    1
@<TRIPOS>SUBSTRUCTURE
     1 ZINC000558052810        1 TEMP              0 ****  ****    0 ROOT


##########                                Name:    ZINC000676204775
##########                DOCK_Rotatable_Bonds:                   4
##########                         Heavy_Atoms:                  25
##########                    Molecular_Weight:             359.452
##########                DOCK_Rotatable_Bonds:                   4
##########                       Formal_Charge:          0.00999978
##########                     HBond_Acceptors:                   8
##########                        HBond_Donors:                   2
##########                         Heavy_Atoms:                  25
##########                          Grid_Score:          -28.581226
##########                     Grid_vdw_energy:          -27.745361
##########                      Grid_es_energy:           -0.835865
##########           Internal_energy_repulsive:           53.651691

@<TRIPOS>MOLECULE
ZINC000676204775
 46 49 1 0 0
SMALL
USER_CHARGES


@<TRIPOS>ATOM
      1 C1          2.0022    3.2128   52.5254 C.3     1  ZINC000676204775   -0.1600
      2 C2          0.5971    3.8096   52.6282 C.3     1  ZINC000676204775    0.1600
      3 C3          0.6723    5.3261   52.4402 C.3     1  ZINC000676204775   -0.1600
      4 N4         -0.2567    3.2303   51.5882 N.pl3   1  ZINC000676204775   -0.3900
      5 N5          0.1687    2.8360   50.3154 N.2     1  ZINC000676204775   -0.2500
      6 C6         -0.8353    2.3612   49.6352 C.2     1  ZINC000676204775    0.0900
      7 C7         -2.0209    2.4305   50.4832 C.ar    1  ZINC000676204775   -0.2100
      8 C8         -3.3632    2.0765   50.3090 C.ar    1  ZINC000676204775    0.0800
      9 C9         -4.2510    2.2747   51.3267 C.ar    1  ZINC000676204775   -0.7200
     10 S10        -5.9418    1.8290   51.1090 S.o2    1  ZINC000676204775    2.6900
     11 O11        -5.9533    0.7209   50.2195 O.2     1  ZINC000676204775   -0.9300
     12 O12        -6.5166    1.7891   52.4079 O.2     1  ZINC000676204775   -0.9600
     13 N13        -6.6788    3.0781   50.3097 N.am    1  ZINC000676204775   -1.1100
     14 C14        -6.7027    4.4163   50.9053 C.3     1  ZINC000676204775    0.2400
     15 H15        -5.8284    4.9796   50.5792 H       1  ZINC000676204775    0.1000
     16 C16        -6.7035    4.3019   52.4348 C.3     1  ZINC000676204775   -0.1200
     17 C17        -6.9700    5.6749   53.0558 C.3     1  ZINC000676204775   -0.1200
     18 C18        -8.4356    6.0682   52.8326 C.3     1  ZINC000676204775   -0.0400
     19 C19        -8.7535    5.8901   51.3685 C.2     1  ZINC000676204775   -0.2300
     20 C20        -9.7929    6.3879   50.6735 C.2     1  ZINC000676204775    0.0600
     21 N21        -9.6667    5.9709   49.3937 N.pl3   1  ZINC000676204775   -0.4800
     22 N22        -8.5056    5.1879   49.3054 N.2     1  ZINC000676204775   -0.2400
     23 C23        -7.9598    5.1386   50.4849 C.2     1  ZINC000676204775    0.0500
     24 C24        -3.8342    2.8242   52.5327 C.ar    1  ZINC000676204775    0.0100
     25 C25        -2.5288    3.1777   52.7267 C.ar    1  ZINC000676204775   -0.1500
     26 C26        -1.5992    2.9823   51.7085 C.ar    1  ZINC000676204775    0.1700
     27 H27         1.9487    2.1323   52.6594 H       1  ZINC000676204775    0.0600
     28 H28         2.4214    3.4370   51.5446 H       1  ZINC000676204775    0.0700
     29 H29         2.6375    3.6438   53.2992 H       1  ZINC000676204775    0.0800
     30 H30         0.1780    3.5854   53.6091 H       1  ZINC000676204775    0.1000
     31 H31         1.0914    5.5503   51.4593 H       1  ZINC000676204775    0.0700
     32 H32        -0.3287    5.7513   52.5134 H       1  ZINC000676204775    0.0600
     33 H33         1.3076    5.7572   53.2139 H       1  ZINC000676204775    0.0800
     34 H34        -0.7972    1.9837   48.6240 H       1  ZINC000676204775    0.2000
     35 H35        -3.6951    1.6492   49.3744 H       1  ZINC000676204775    0.1500
     36 H36        -7.0947    2.9237   49.4470 H       1  ZINC000676204775    0.4200
     37 H37        -7.4825    3.6060   52.7458 H       1  ZINC000676204775    0.0800
     38 H38        -5.7343    3.9338   52.7713 H       1  ZINC000676204775    0.0800
     39 H39        -6.7641    5.6352   54.1254 H       1  ZINC000676204775    0.0700
     40 H40        -6.3207    6.4160   52.5895 H       1  ZINC000676204775    0.0700
     41 H41        -9.0836    5.4271   53.4302 H       1  ZINC000676204775    0.0700
     42 H42        -8.5843    7.1099   53.1171 H       1  ZINC000676204775    0.0700
     43 H43       -10.5845    7.0083   51.0670 H       1  ZINC000676204775    0.1800
     44 H44       -10.2723    6.1769   48.6645 H       1  ZINC000676204775    0.4400
     45 H45        -4.5510    2.9740   53.3265 H       1  ZINC000676204775    0.1500
     46 H46        -2.2178    3.6040   53.6691 H       1  ZINC000676204775    0.1300
@<TRIPOS>BOND
     1     1     2    1
     2     1    27    1
     3     1    28    1
     4     1    29    1
     5     2     3    1
     6     2     4    1
     7     2    30    1
     8     3    31    1
     9     3    32    1
    10     3    33    1
    11     4    26    1
    12     4     5    1
    13     5     6    2
    14     6     7    1
    15     6    34    1
    16     7    26   ar
    17     7     8   ar
    18     8     9   ar
    19     8    35    1
    20     9    10    1
    21     9    24   ar
    22    10    11    2
    23    10    12    2
    24    10    13   am
    25    13    14    1
    26    13    36    1
    27    14    15    1
    28    14    23    1
    29    14    16    1
    30    16    17    1
    31    16    37    1
    32    16    38    1
    33    17    18    1
    34    17    39    1
    35    17    40    1
    36    18    19    1
    37    18    41    1
    38    18    42    1
    39    19    23    1
    40    19    20    2
    41    20    21    1
    42    20    43    1
    43    21    22    1
    44    21    44    1
    45    22    23    2
    46    24    25   ar
    47    24    45    1
    48    25    26   ar
    49    25    46    1
@<TRIPOS>SUBSTRUCTURE
     1 ZINC000676204775        1 TEMP              0 ****  ****    0 ROOT


##########                                Name:    ZINC000768148687
##########                DOCK_Rotatable_Bonds:                   8
##########                         Heavy_Atoms:                  25
##########                    Molecular_Weight:             371.307
##########                DOCK_Rotatable_Bonds:                   8
##########                       Formal_Charge:         2.98023e-08
##########                     HBond_Acceptors:                  11
##########                        HBond_Donors:                   0
##########                         Heavy_Atoms:                  25
##########                          Grid_Score:          -28.576784
##########                     Grid_vdw_energy:          -28.333910
##########                      Grid_es_energy:           -0.242873
##########           Internal_energy_repulsive:            9.953202

@<TRIPOS>MOLECULE
ZINC000768148687
 43 44 1 0 0
SMALL
USER_CHARGES


@<TRIPOS>ATOM
      1 C1         -0.2058    1.2180   47.7923 C.3     1  ZINC000768148687   -0.1800
      2 C2          0.3149    1.7515   49.1283 C.3     1  ZINC000768148687    0.1100
      3 N3         -0.8174    2.1170   49.9830 N.pl3   1  ZINC000768148687   -0.3100
      4 N4         -2.1641    1.8476   49.7151 N.2     1  ZINC000768148687   -0.2000
      5 C5         -2.8914    2.3162   50.6911 C.2     1  ZINC000768148687    0.0200
      6 C6         -4.3927    2.2362   50.7944 C.3     1  ZINC000768148687    0.5500
      7 F7         -4.8601    1.1892   49.9928 F       1  ZINC000768148687   -0.1600
      8 F8         -4.7569    2.0032   52.1249 F       1  ZINC000768148687   -0.1600
      9 F9         -4.9549    3.4418   50.3613 F       1  ZINC000768148687   -0.1500
     10 C10        -2.0245    2.9124   51.6350 C.2     1  ZINC000768148687   -0.1800
     11 C11        -2.4194    3.5666   52.8941 C.2     1  ZINC000768148687    0.5300
     12 O12        -3.0128    4.6267   52.8680 O.2     1  ZINC000768148687   -0.4700
     13 O13        -2.1226    2.9896   54.0752 O.3     1  ZINC000768148687   -0.3400
     14 C14        -2.5730    3.6731   55.2744 C.3     1  ZINC000768148687    0.0200
     15 C15        -2.2657    2.8095   56.4995 C.3     1  ZINC000768148687    0.0600
     16 N16        -0.9378    3.1570   57.0229 N.3     1  ZINC000768148687   -0.5300
     17 C17         0.1229    2.4920   56.2524 C.3     1  ZINC000768148687    0.0100
     18 C18         1.4879    2.9273   56.7921 C.3     1  ZINC000768148687    0.0600
     19 O19         1.5616    2.6245   58.1878 O.3     1  ZINC000768148687   -0.3800
     20 C20         0.5436    3.2564   58.9686 C.3     1  ZINC000768148687    0.0600
     21 C21        -0.8309    2.8243   58.4510 C.3     1  ZINC000768148687    0.0100
     22 C22        -0.7371    2.7614   51.1577 C.2     1  ZINC000768148687    0.0600
     23 C23         0.5247    3.2409   51.8277 C.3     1  ZINC000768148687    0.3400
     24 F24         1.5577    2.3297   51.5834 F       1  ZINC000768148687   -0.1700
     25 F25         0.8774    4.4940   51.3155 F       1  ZINC000768148687   -0.1800
     26 H26         0.6367    0.9461   47.1564 H       1  ZINC000768148687    0.0900
     27 H27        -0.8261    0.3392   47.9688 H       1  ZINC000768148687    0.0700
     28 H28        -0.7990    1.9884   47.2997 H       1  ZINC000768148687    0.0700
     29 H29         0.9081    0.9812   49.6209 H       1  ZINC000768148687    0.1100
     30 H30         0.9352    2.6303   48.9517 H       1  ZINC000768148687    0.1200
     31 H31        -2.0557    4.6283   55.3642 H       1  ZINC000768148687    0.0800
     32 H32        -3.6473    3.8461   55.2122 H       1  ZINC000768148687    0.0800
     33 H33        -3.0174    2.9887   57.2681 H       1  ZINC000768148687    0.1100
     34 H34        -2.2802    1.7574   56.2152 H       1  ZINC000768148687    0.0900
     35 H35         0.0207    1.4112   56.3501 H       1  ZINC000768148687    0.0500
     36 H36         0.0404    2.7725   55.2023 H       1  ZINC000768148687    0.0900
     37 H37         2.2762    2.3932   56.2615 H       1  ZINC000768148687    0.1000
     38 H38         1.6119    4.0003   56.6454 H       1  ZINC000768148687    0.0600
     39 H39         0.6490    2.9602   60.0123 H       1  ZINC000768148687    0.1000
     40 H40         0.6401    4.3388   58.8852 H       1  ZINC000768148687    0.0600
     41 H41        -1.6097    3.3474   59.0059 H       1  ZINC000768148687    0.0800
     42 H42        -0.9483    1.7488   58.5839 H       1  ZINC000768148687    0.0700
     43 H43         0.3577    3.3214   52.9019 H       1  ZINC000768148687    0.1500
@<TRIPOS>BOND
     1     1     2    1
     2     1    26    1
     3     1    27    1
     4     1    28    1
     5     2     3    1
     6     2    29    1
     7     2    30    1
     8     3    22    1
     9     3     4    1
    10     4     5    2
    11     5     6    1
    12     5    10    1
    13     6     7    1
    14     6     8    1
    15     6     9    1
    16    10    11    1
    17    10    22    2
    18    11    12    2
    19    11    13    1
    20    13    14    1
    21    14    15    1
    22    14    31    1
    23    14    32    1
    24    15    16    1
    25    15    33    1
    26    15    34    1
    27    16    21    1
    28    16    17    1
    29    17    18    1
    30    17    35    1
    31    17    36    1
    32    18    19    1
    33    18    37    1
    34    18    38    1
    35    19    20    1
    36    20    21    1
    37    20    39    1
    38    20    40    1
    39    21    41    1
    40    21    42    1
    41    22    23    1
    42    23    24    1
    43    23    25    1
    44    23    43    1
@<TRIPOS>SUBSTRUCTURE
     1 ZINC000768148687        1 TEMP              0 ****  ****    0 ROOT


##########                                Name:    ZINC001002468398
##########                DOCK_Rotatable_Bonds:                   7
##########                         Heavy_Atoms:                  24
##########                    Molecular_Weight:             341.358
##########                DOCK_Rotatable_Bonds:                   7
##########                       Formal_Charge:           0.0100001
##########                     HBond_Acceptors:                   8
##########                        HBond_Donors:                   0
##########                         Heavy_Atoms:                  24
##########                          Grid_Score:          -28.537739
##########                     Grid_vdw_energy:          -25.817059
##########                      Grid_es_energy:           -2.720679
##########           Internal_energy_repulsive:           24.341511

@<TRIPOS>MOLECULE
ZINC001002468398
 45 47 1 0 0
SMALL
USER_CHARGES


@<TRIPOS>ATOM
      1 C1         -9.5661   -0.1845   66.1917 C.3     1  ZINC001002468398   -0.1400
      2 C2         -9.1637   -0.4379   64.7375 C.3     1  ZINC001002468398   -0.0500
      3 C3         -9.0128    0.8795   64.0213 C.2     1  ZINC001002468398    0.0500
      4 C4         -9.9878    1.5547   63.3538 C.2     1  ZINC001002468398   -0.0800
      5 C5        -11.3920    1.1353   63.1948 C.2     1  ZINC001002468398    0.6000
      6 O6        -12.1225    1.0763   64.1653 O.2     1  ZINC001002468398   -0.5300
      7 N7        -11.8664    0.8172   61.9741 N.am    1  ZINC001002468398   -0.6000
      8 C8        -13.2620    0.4004   61.8164 C.3     1  ZINC001002468398    0.0900
      9 C9        -10.9865    0.8881   60.8050 C.3     1  ZINC001002468398    0.1000
     10 C10        -9.9520   -0.2369   60.8763 C.3     1  ZINC001002468398    0.1300
     11 H11       -10.0260   -0.7482   61.8361 H       1  ZINC001002468398    0.0800
     12 C12        -8.5330    0.3428   60.6983 C.3     1  ZINC001002468398   -0.1300
     13 C13        -7.8226   -0.7351   59.8375 C.3     1  ZINC001002468398   -0.1300
     14 C14        -8.9767   -1.2110   58.9204 C.3     1  ZINC001002468398    0.1000
     15 N15       -10.1768   -1.1930   59.7821 N.am    1  ZINC001002468398   -0.6100
     16 C16       -11.2901   -1.9287   59.5938 C.2     1  ZINC001002468398    0.5600
     17 O17       -12.2187   -1.8327   60.3681 O.2     1  ZINC001002468398   -0.5100
     18 C18       -11.3814   -2.8707   58.4209 C.3     1  ZINC001002468398   -0.2000
     19 H19       -10.7904   -3.7827   58.5034 H       1  ZINC001002468398    0.1500
     20 C20       -11.5378   -2.2535   57.0297 C.3     1  ZINC001002468398   -0.1500
     21 C21       -12.7229   -2.9618   57.6908 C.3     1  ZINC001002468398    0.2300
     22 F22       -13.0968   -4.2093   57.1797 F       1  ZINC001002468398   -0.1500
     23 F23       -13.7708   -2.1640   58.1627 F       1  ZINC001002468398   -0.1400
     24 N24        -9.4225    2.6903   62.8612 N.2     1  ZINC001002468398   -0.4600
     25 C25        -8.1703    2.7105   63.2071 C.2     1  ZINC001002468398    0.1700
     26 O26        -7.8925    1.6131   63.9251 O.3     1  ZINC001002468398   -0.2000
     27 H27        -8.7962    0.4102   66.6834 H       1  ZINC001002468398    0.0600
     28 H28       -10.5134    0.3540   66.2181 H       1  ZINC001002468398    0.0600
     29 H29        -9.6751   -1.1373   66.7098 H       1  ZINC001002468398    0.0700
     30 H30        -8.2164   -0.9763   64.7112 H       1  ZINC001002468398    0.1200
     31 H31        -9.9335   -1.0326   64.2458 H       1  ZINC001002468398    0.0900
     32 H32       -13.9206    1.2213   62.1002 H       1  ZINC001002468398    0.0700
     33 H33       -13.4452    0.1305   60.7763 H       1  ZINC001002468398    0.0700
     34 H34       -13.4585   -0.4606   62.4551 H       1  ZINC001002468398    0.0700
     35 H35       -11.5794    0.7794   59.8968 H       1  ZINC001002468398    0.0900
     36 H36       -10.4758    1.8510   60.7924 H       1  ZINC001002468398    0.0900
     37 H37        -8.5690    1.2957   60.1704 H       1  ZINC001002468398    0.1000
     38 H38        -8.0380    0.4537   61.6631 H       1  ZINC001002468398    0.0800
     39 H39        -7.0139   -0.2973   59.2525 H       1  ZINC001002468398    0.0900
     40 H40        -7.4553   -1.5518   60.4590 H       1  ZINC001002468398    0.0800
     41 H41        -9.1009   -0.5271   58.0808 H       1  ZINC001002468398    0.0800
     42 H42        -8.7841   -2.2222   58.5619 H       1  ZINC001002468398    0.0800
     43 H43       -11.5746   -1.1662   56.9626 H       1  ZINC001002468398    0.1300
     44 H44       -11.0499   -2.7598   56.1967 H       1  ZINC001002468398    0.1400
     45 H45        -7.4656    3.4905   62.9592 H       1  ZINC001002468398    0.2600
@<TRIPOS>BOND
     1     1     2    1
     2     1    27    1
     3     1    28    1
     4     1    29    1
     5     2     3    1
     6     2    30    1
     7     2    31    1
     8     3    26    1
     9     3     4    2
    10     4     5    1
    11     4    24    1
    12     5     6    2
    13     5     7   am
    14     7     8    1
    15     7     9    1
    16     8    32    1
    17     8    33    1
    18     8    34    1
    19     9    10    1
    20     9    35    1
    21     9    36    1
    22    10    11    1
    23    10    15    1
    24    10    12    1
    25    12    13    1
    26    12    37    1
    27    12    38    1
    28    13    14    1
    29    13    39    1
    30    13    40    1
    31    14    15    1
    32    14    41    1
    33    14    42    1
    34    15    16   am
    35    16    17    2
    36    16    18    1
    37    18    19    1
    38    18    21    1
    39    18    20    1
    40    20    21    1
    41    20    43    1
    42    20    44    1
    43    21    22    1
    44    21    23    1
    45    24    25    2
    46    25    26    1
    47    25    45    1
@<TRIPOS>SUBSTRUCTURE
     1 ZINC001002468398        1 TEMP              0 ****  ****    0 ROOT


##########                                Name:    ZINC001011676549
##########                DOCK_Rotatable_Bonds:                   6
##########                         Heavy_Atoms:                  24
##########                    Molecular_Weight:             330.387
##########                DOCK_Rotatable_Bonds:                   6
##########                       Formal_Charge:        -1.49012e-07
##########                     HBond_Acceptors:                   7
##########                        HBond_Donors:                   1
##########                         Heavy_Atoms:                  24
##########                          Grid_Score:          -28.518742
##########                     Grid_vdw_energy:          -28.236111
##########                      Grid_es_energy:           -0.282631
##########           Internal_energy_repulsive:           13.635986

@<TRIPOS>MOLECULE
ZINC001011676549
 46 48 1 0 0
SMALL
USER_CHARGES


@<TRIPOS>ATOM
      1 C1        -11.2388    1.2777   56.9342 C.3     1  ZINC001011676549   -0.1700
      2 C2        -11.8345    0.1840   56.0456 C.3     1  ZINC001011676549    0.1300
      3 H3        -12.5051    0.6284   55.3101 H       1  ZINC001011676549    0.0900
      4 C4        -10.7039   -0.5835   55.3286 C.3     1  ZINC001011676549    0.1400
      5 H5        -11.0115   -0.8739   54.3241 H       1  ZINC001011676549    0.1100
      6 N6         -9.4802    0.2207   55.2817 N.am    1  ZINC001011676549   -0.7200
      7 C7         -9.0875    0.7831   54.1215 C.2     1  ZINC001011676549    0.5200
      8 O8         -9.7464    0.6222   53.1160 O.2     1  ZINC001011676549   -0.5300
      9 C9         -7.8298    1.6118   54.0737 C.3     1  ZINC001011676549   -0.0900
     10 C10        -7.0975    1.3394   52.7850 C.ar    1  ZINC001011676549   -0.1800
     11 C11        -6.5567    2.3777   52.0430 C.ar    1  ZINC001011676549    0.1600
     12 N12        -5.9204    2.1003   50.9163 N.ar    1  ZINC001011676549   -0.5200
     13 C13        -5.7982    0.8563   50.4986 C.ar    1  ZINC001011676549    0.3000
     14 N14        -6.2993   -0.1558   51.1777 N.ar    1  ZINC001011676549   -0.5200
     15 C15        -6.9436    0.0443   52.3162 C.ar    1  ZINC001011676549    0.1600
     16 C16       -10.5094   -1.8342   56.2261 C.3     1  ZINC001011676549   -0.1400
     17 C17       -11.9622   -2.1191   56.6815 C.3     1  ZINC001011676549    0.1000
     18 N18       -12.5695   -0.7856   56.8708 N.am    1  ZINC001011676549   -0.6100
     19 C19       -13.6189   -0.5066   57.6693 C.2     1  ZINC001011676549    0.5800
     20 O20       -14.0369    0.6328   57.7481 O.2     1  ZINC001011676549   -0.5300
     21 C21       -14.2585   -1.5801   58.4454 C.2     1  ZINC001011676549   -0.1400
     22 C22       -15.0713   -2.4172   57.8266 C.2     1  ZINC001011676549   -0.1500
     23 C23       -15.7750   -3.5375   58.5393 C.3     1  ZINC001011676549    0.0900
     24 O24       -15.1683   -3.7669   59.8125 O.3     1  ZINC001011676549   -0.3800
     25 C25       -15.0189   -2.5713   60.5876 C.3     1  ZINC001011676549    0.0600
     26 C26       -13.9598   -1.6906   59.9155 C.3     1  ZINC001011676549   -0.1100
     27 H27       -10.5792    0.8251   57.6747 H       1  ZINC001011676549    0.0600
     28 H28       -10.6702    1.9756   56.3196 H       1  ZINC001011676549    0.0700
     29 H29       -12.0423    1.8116   57.4413 H       1  ZINC001011676549    0.0800
     30 H30        -8.9527    0.3484   56.0855 H       1  ZINC001011676549    0.4100
     31 H31        -8.0892    2.6692   54.1276 H       1  ZINC001011676549    0.1100
     32 H32        -7.1905    1.3510   54.9170 H       1  ZINC001011676549    0.1100
     33 H33        -6.6536    3.3994   52.3795 H       1  ZINC001011676549    0.1700
     34 H34        -5.2736    0.6612   49.5748 H       1  ZINC001011676549    0.2000
     35 H35        -7.3515   -0.7896   52.8682 H       1  ZINC001011676549    0.1700
     36 H36       -10.1093   -2.6693   55.6512 H       1  ZINC001011676549    0.0900
     37 H37        -9.8700   -1.6072   57.0792 H       1  ZINC001011676549    0.0800
     38 H38       -12.4994   -2.6732   55.9117 H       1  ZINC001011676549    0.0800
     39 H39       -11.9638   -2.6737   57.6199 H       1  ZINC001011676549    0.0800
     40 H40       -15.2370   -2.2915   56.7668 H       1  ZINC001011676549    0.1200
     41 H41       -16.8232   -3.2741   58.6806 H       1  ZINC001011676549    0.0700
     42 H42       -15.7100   -4.4451   57.9391 H       1  ZINC001011676549    0.1100
     43 H43       -15.9698   -2.0402   60.6288 H       1  ZINC001011676549    0.0600
     44 H44       -14.6946   -2.8270   61.5965 H       1  ZINC001011676549    0.1000
     45 H45       -12.9744   -2.1337   60.0596 H       1  ZINC001011676549    0.0900
     46 H46       -13.9788   -0.6960   60.3610 H       1  ZINC001011676549    0.0900
@<TRIPOS>BOND
     1     1     2    1
     2     1    27    1
     3     1    28    1
     4     1    29    1
     5     2     3    1
     6     2    18    1
     7     2     4    1
     8     4     5    1
     9     4     6    1
    10     4    16    1
    11     6     7   am
    12     6    30    1
    13     7     8    2
    14     7     9    1
    15     9    10    1
    16     9    31    1
    17     9    32    1
    18    10    15   ar
    19    10    11   ar
    20    11    12   ar
    21    11    33    1
    22    12    13   ar
    23    13    14   ar
    24    13    34    1
    25    14    15   ar
    26    15    35    1
    27    16    17    1
    28    16    36    1
    29    16    37    1
    30    17    18    1
    31    17    38    1
    32    17    39    1
    33    18    19   am
    34    19    20    2
    35    19    21    1
    36    21    26    1
    37    21    22    2
    38    22    23    1
    39    22    40    1
    40    23    24    1
    41    23    41    1
    42    23    42    1
    43    24    25    1
    44    25    26    1
    45    25    43    1
    46    25    44    1
    47    26    45    1
    48    26    46    1
@<TRIPOS>SUBSTRUCTURE
     1 ZINC001011676549        1 TEMP              0 ****  ****    0 ROOT


##########                                Name:    ZINC001296589646
##########                DOCK_Rotatable_Bonds:                   8
##########                         Heavy_Atoms:                  29
##########                    Molecular_Weight:             398.548
##########                DOCK_Rotatable_Bonds:                   8
##########                       Formal_Charge:          -0.0200008
##########                     HBond_Acceptors:                   6
##########                        HBond_Donors:                   0
##########                         Heavy_Atoms:                  29
##########                          Grid_Score:          -28.510515
##########                     Grid_vdw_energy:          -28.713665
##########                      Grid_es_energy:            0.203150
##########           Internal_energy_repulsive:           21.160645

@<TRIPOS>MOLECULE
ZINC001296589646
 63 66 1 0 0
SMALL
USER_CHARGES


@<TRIPOS>ATOM
      1 C1         -8.6569    4.5886   50.4874 C.3     1  ZINC001296589646   -0.1500
      2 C2         -7.4561    4.1659   51.3361 C.3     1  ZINC001296589646    0.0500
      3 O3         -7.1958    2.7754   51.1338 O.3     1  ZINC001296589646   -0.3600
      4 C4         -6.1602    2.2507   51.9670 C.3     1  ZINC001296589646    0.1800
      5 C5         -6.4598    2.5133   53.4205 C.2     1  ZINC001296589646    0.1500
      6 N6         -5.8083    3.3197   54.2097 N.2     1  ZINC001296589646   -0.2600
      7 N7         -6.3301    3.3039   55.3842 N.2     1  ZINC001296589646   -0.3200
      8 C8         -7.3509    2.4797   55.4073 C.2     1  ZINC001296589646    0.3600
      9 N9         -8.1596    2.2004   56.4976 N.3     1  ZINC001296589646   -0.4300
     10 C10        -7.3468    1.8037   57.6756 C.3     1  ZINC001296589646    0.0300
     11 C11        -8.3062    2.0489   58.8672 C.3     1  ZINC001296589646   -0.1200
     12 C12        -9.0561    3.3343   58.4484 C.3     1  ZINC001296589646   -0.1000
     13 H13        -8.5942    4.2084   58.9074 H       1  ZINC001296589646    0.0800
     14 C14       -10.5304    3.2428   58.8472 C.3     1  ZINC001296589646   -0.1400
     15 C15        -8.9178    3.3994   56.9160 C.3     1  ZINC001296589646    0.0500
     16 N16        -7.4693    1.9540   54.1537 N.pl3   1  ZINC001296589646   -0.4600
     17 C17        -8.4652    0.9840   53.6918 C.3     1  ZINC001296589646    0.1000
     18 C18        -9.7745    1.7091   53.3744 C.3     1  ZINC001296589646   -0.1300
     19 C19       -10.8541    0.6829   53.0248 C.3     1  ZINC001296589646   -0.0500
     20 H20       -10.4074   -0.1374   52.4632 H       1  ZINC001296589646    0.0800
     21 C21       -11.4775    0.1398   54.3121 C.3     1  ZINC001296589646   -0.1500
     22 C22       -11.9212    1.3414   52.1889 C.ar    1  ZINC001296589646   -0.0800
     23 C23       -12.5390    0.6342   51.1743 C.ar    1  ZINC001296589646   -0.1100
     24 C24       -13.5178    1.2383   50.4076 C.ar    1  ZINC001296589646   -0.1200
     25 C25       -13.8790    2.5494   50.6554 C.ar    1  ZINC001296589646   -0.1200
     26 C26       -13.2618    3.2562   51.6704 C.ar    1  ZINC001296589646   -0.1200
     27 C27       -12.2861    2.6508   52.4401 C.ar    1  ZINC001296589646   -0.1200
     28 C28        -4.7789    2.8380   51.5680 C.3     1  ZINC001296589646   -0.1400
     29 C29        -4.3819    1.8926   50.4063 C.3     1  ZINC001296589646    0.0600
     30 O30        -4.8715    0.5984   50.7919 O.3     1  ZINC001296589646   -0.3700
     31 C31        -5.9607    0.7414   51.7111 C.3     1  ZINC001296589646    0.0400
     32 H32        -8.4071    4.4921   49.4308 H       1  ZINC001296589646    0.0600
     33 H33        -9.5088    3.9493   50.7192 H       1  ZINC001296589646    0.0700
     34 H34        -8.9104    5.6257   50.7075 H       1  ZINC001296589646    0.0700
     35 H35        -6.5813    4.7458   51.0421 H       1  ZINC001296589646    0.0500
     36 H36        -7.6740    4.3453   52.3888 H       1  ZINC001296589646    0.0600
     37 H37        -7.0696    0.7513   57.6151 H       1  ZINC001296589646    0.0900
     38 H38        -6.4600    2.4318   57.7603 H       1  ZINC001296589646    0.0600
     39 H39        -9.0009    1.2167   58.9807 H       1  ZINC001296589646    0.0800
     40 H40        -7.7448    2.2123   59.7872 H       1  ZINC001296589646    0.0800
     41 H41       -10.6086    3.1479   59.9303 H       1  ZINC001296589646    0.0600
     42 H42       -11.0511    4.1438   58.5229 H       1  ZINC001296589646    0.0600
     43 H43       -10.9818    2.3716   58.3725 H       1  ZINC001296589646    0.0600
     44 H44        -8.3751    4.3005   56.6301 H       1  ZINC001296589646    0.0800
     45 H45        -9.9048    3.3948   56.4535 H       1  ZINC001296589646    0.0900
     46 H46        -8.0986    0.4862   52.7941 H       1  ZINC001296589646    0.1100
     47 H47        -8.6402    0.2432   54.4722 H       1  ZINC001296589646    0.1000
     48 H48       -10.0900    2.2866   54.2434 H       1  ZINC001296589646    0.0800
     49 H49        -9.6226    2.3794   52.5283 H       1  ZINC001296589646    0.0700
     50 H50       -12.2467   -0.5913   54.0631 H       1  ZINC001296589646    0.0600
     51 H51       -10.7057   -0.3365   54.9167 H       1  ZINC001296589646    0.0600
     52 H52       -11.9243    0.9602   54.8738 H       1  ZINC001296589646    0.0600
     53 H53       -12.2568   -0.3902   50.9807 H       1  ZINC001296589646    0.1200
     54 H54       -14.0000    0.6860   49.6146 H       1  ZINC001296589646    0.1200
     55 H55       -14.6432    3.0215   50.0558 H       1  ZINC001296589646    0.1200
     56 H56       -13.5438    4.2806   51.8638 H       1  ZINC001296589646    0.1200
     57 H57       -11.8039    3.2031   53.2331 H       1  ZINC001296589646    0.1200
     58 H58        -4.8748    3.8671   51.2216 H       1  ZINC001296589646    0.1000
     59 H59        -4.0690    2.7674   52.3921 H       1  ZINC001296589646    0.1000
     60 H60        -4.8542    2.2147   49.4782 H       1  ZINC001296589646    0.0700
     61 H61        -3.2983    1.8684   50.2918 H       1  ZINC001296589646    0.0900
     62 H62        -5.7234    0.2358   52.6472 H       1  ZINC001296589646    0.1000
     63 H63        -6.8670    0.3166   51.2795 H       1  ZINC001296589646    0.0800
@<TRIPOS>BOND
     1     1     2    1
     2     1    32    1
     3     1    33    1
     4     1    34    1
     5     2     3    1
     6     2    35    1
     7     2    36    1
     8     3     4    1
     9     4    31    1
    10     4     5    1
    11     4    28    1
    12     5    16    1
    13     5     6    2
    14     6     7    1
    15     7     8    2
    16     8     9    1
    17     8    16    1
    18     9    15    1
    19     9    10    1
    20    10    11    1
    21    10    37    1
    22    10    38    1
    23    11    12    1
    24    11    39    1
    25    11    40    1
    26    12    13    1
    27    12    14    1
    28    12    15    1
    29    14    41    1
    30    14    42    1
    31    14    43    1
    32    15    44    1
    33    15    45    1
    34    16    17    1
    35    17    18    1
    36    17    46    1
    37    17    47    1
    38    18    19    1
    39    18    48    1
    40    18    49    1
    41    19    20    1
    42    19    21    1
    43    19    22    1
    44    21    50    1
    45    21    51    1
    46    21    52    1
    47    22    27   ar
    48    22    23   ar
    49    23    24   ar
    50    23    53    1
    51    24    25   ar
    52    24    54    1
    53    25    26   ar
    54    25    55    1
    55    26    27   ar
    56    26    56    1
    57    27    57    1
    58    28    29    1
    59    28    58    1
    60    28    59    1
    61    29    30    1
    62    29    60    1
    63    29    61    1
    64    30    31    1
    65    31    62    1
    66    31    63    1
@<TRIPOS>SUBSTRUCTURE
     1 ZINC001296589646        1 TEMP              0 ****  ****    0 ROOT


##########                                Name:    ZINC000543020509
##########                DOCK_Rotatable_Bonds:                   5
##########                         Heavy_Atoms:                  26
##########                    Molecular_Weight:              366.81
##########                DOCK_Rotatable_Bonds:                   5
##########                       Formal_Charge:               -0.02
##########                     HBond_Acceptors:                   8
##########                        HBond_Donors:                   1
##########                         Heavy_Atoms:                  26
##########                          Grid_Score:          -28.498606
##########                     Grid_vdw_energy:          -29.520100
##########                      Grid_es_energy:            1.021494
##########           Internal_energy_repulsive:           15.348651

@<TRIPOS>MOLECULE
ZINC000543020509
 41 43 1 0 0
SMALL
USER_CHARGES


@<TRIPOS>ATOM
      1 C1          2.7585    2.2886   51.6888 C.3     1  ZINC000543020509    0.0800
      2 N2          2.5912    1.8941   50.2878 N.pl3   1  ZINC000543020509   -0.6200
      3 C3          3.7645    1.5673   49.4738 C.3     1  ZINC000543020509    0.0900
      4 C4          1.3175    1.8297   49.7302 C.ar    1  ZINC000543020509    0.2500
      5 C5          1.1386    1.4598   48.3983 C.ar    1  ZINC000543020509   -0.2200
      6 C6         -0.1412    1.4061   47.8777 C.ar    1  ZINC000543020509    0.1400
      7 N7         -1.1878    1.6983   48.6204 N.ar    1  ZINC000543020509   -0.5000
      8 C8         -1.0653    2.0558   49.8942 C.ar    1  ZINC000543020509    0.1100
      9 C9         -2.2757    2.3743   50.6866 C.2     1  ZINC000543020509    0.5900
     10 O10        -2.1702    2.7016   51.8523 O.2     1  ZINC000543020509   -0.5000
     11 N11        -3.4940    2.3010   50.1150 N.am    1  ZINC000543020509   -0.6200
     12 C12        -4.6375    2.6035   50.8632 C.2     1  ZINC000543020509    0.3200
     13 N13        -5.6850    1.8275   51.0156 N.2     1  ZINC000543020509   -0.3100
     14 N14        -6.6075    2.4928   51.8334 N.pl3   1  ZINC000543020509   -0.3300
     15 C15        -7.8529    2.0033   52.2348 C.ar    1  ZINC000543020509    0.2200
     16 C16        -7.9547    0.7438   52.8068 C.ar    1  ZINC000543020509   -0.1300
     17 C17        -9.1867    0.2609   53.2033 C.ar    1  ZINC000543020509   -0.0500
     18 C18       -10.3281    1.0281   53.0335 C.ar    1  ZINC000543020509   -0.0600
     19 Cl19      -11.8693    0.4075   53.5369 Cl      1  ZINC000543020509   -0.0500
     20 C20       -10.2449    2.2836   52.4665 C.ar    1  ZINC000543020509   -0.0400
     21 C21        -9.0051    2.7858   52.0663 C.ar    1  ZINC000543020509   -0.0200
     22 C22        -8.9116    4.0877   51.4773 C.1     1  ZINC000543020509    0.2500
     23 N23        -8.8374    5.1205   51.0101 N.1     1  ZINC000543020509   -0.3800
     24 C24        -6.0767    3.6981   52.1677 C.2     1  ZINC000543020509    0.0700
     25 C25        -4.8598    3.7881   51.5858 C.2     1  ZINC000543020509   -0.2400
     26 C26         0.1878    2.1282   50.4919 C.ar    1  ZINC000543020509   -0.1800
     27 H27         2.8754    3.3706   51.7501 H       1  ZINC000543020509    0.0600
     28 H28         1.8804    1.9853   52.2590 H       1  ZINC000543020509    0.0700
     29 H29         3.6439    1.8036   52.0996 H       1  ZINC000543020509    0.0700
     30 H30         4.6663    1.6735   50.0770 H       1  ZINC000543020509    0.0800
     31 H31         3.6849    0.5404   49.1172 H       1  ZINC000543020509    0.0600
     32 H32         3.8157    2.2450   48.6215 H       1  ZINC000543020509    0.0600
     33 H33         1.9903    1.2181   47.7797 H       1  ZINC000543020509    0.1400
     34 H34        -0.2841    1.1202   46.8461 H       1  ZINC000543020509    0.1700
     35 H35        -3.5784    2.0386   49.1850 H       1  ZINC000543020509    0.4300
     36 H36        -7.0697    0.1398   52.9421 H       1  ZINC000543020509    0.1500
     37 H37        -9.2607   -0.7206   53.6479 H       1  ZINC000543020509    0.1500
     38 H38       -11.1369    2.8782   52.3361 H       1  ZINC000543020509    0.1500
     39 H39        -6.5419    4.4482   52.7902 H       1  ZINC000543020509    0.1900
     40 H40        -4.1812    4.6251   51.6581 H       1  ZINC000543020509    0.1800
     41 H41         0.2855    2.4185   51.5275 H       1  ZINC000543020509    0.1500
@<TRIPOS>BOND
     1     1     2    1
     2     1    27    1
     3     1    28    1
     4     1    29    1
     5     2     3    1
     6     2     4    1
     7     3    30    1
     8     3    31    1
     9     3    32    1
    10     4    26   ar
    11     4     5   ar
    12     5     6   ar
    13     5    33    1
    14     6     7   ar
    15     6    34    1
    16     7     8   ar
    17     8     9    1
    18     8    26   ar
    19     9    10    2
    20     9    11   am
    21    11    12    1
    22    11    35    1
    23    12    25    1
    24    12    13    2
    25    13    14    1
    26    14    15    1
    27    14    24    1
    28    15    21   ar
    29    15    16   ar
    30    16    17   ar
    31    16    36    1
    32    17    18   ar
    33    17    37    1
    34    18    19    1
    35    18    20   ar
    36    20    21   ar
    37    20    38    1
    38    21    22    1
    39    22    23    3
    40    24    25    2
    41    24    39    1
    42    25    40    1
    43    26    41    1
@<TRIPOS>SUBSTRUCTURE
     1 ZINC000543020509        1 TEMP              0 ****  ****    0 ROOT


##########                                Name:    ZINC000355549087
##########                DOCK_Rotatable_Bonds:                   9
##########                         Heavy_Atoms:                  23
##########                    Molecular_Weight:             336.415
##########                DOCK_Rotatable_Bonds:                   9
##########                       Formal_Charge:        -9.53674e-07
##########                     HBond_Acceptors:                   8
##########                        HBond_Donors:                   4
##########                         Heavy_Atoms:                  23
##########                          Grid_Score:          -28.488169
##########                     Grid_vdw_energy:          -27.589642
##########                      Grid_es_energy:           -0.898527
##########           Internal_energy_repulsive:           10.098203

@<TRIPOS>MOLECULE
ZINC000355549087
 43 44 1 0 0
SMALL
USER_CHARGES


@<TRIPOS>ATOM
      1 C1          4.0655    2.4670   51.4706 C.3     1  <0>        -0.1500
      2 C2          4.2108    2.2980   49.9569 C.3     1  <0>        -0.1200
      3 C3          3.9998    0.8288   49.5854 C.3     1  <0>        -0.1000
      4 H4          4.0475    0.2160   50.4855 H       1  <0>         0.0800
      5 C5          5.0922    0.3875   48.6093 C.3     1  <0>        -0.1500
      6 C6          2.6290    0.6613   48.9265 C.3     1  <0>         0.0900
      7 H7          2.6036    1.2233   47.9929 H       1  <0>         0.1000
      8 O8          2.3965   -0.7225   48.6561 O.3     1  <0>        -0.3500
      9 C9          1.9531   -0.9878   47.3238 C.3     1  <0>         0.0200
     10 C10         1.5596    1.1787   49.8536 C.2     1  <0>         0.5100
     11 O11         1.3876    0.6542   50.9335 O.2     1  <0>        -0.4800
     12 N12         0.7941    2.2242   49.4827 N.am    1  <0>        -0.6200
     13 C13        -0.1909    2.7023   50.3383 C.2     1  <0>         0.2400
     14 N14        -1.4424    2.3755   50.2802 N.2     1  <0>        -0.5000
     15 C15        -2.2490    2.9268   51.1774 C.2     1  <0>         0.1700
     16 C16        -3.7066    2.6462   51.2324 C.2     1  <0>        -0.1100
     17 C17        -4.4929    2.2515   50.1882 C.2     1  <0>         0.0600
     18 N18        -5.7619    2.0978   50.6393 N.pl3   1  <0>        -0.5400
     19 C19        -5.7949    2.3952   51.9828 C.2     1  <0>        -0.0600
     20 C20        -6.9797    2.3514   52.8470 C.2     1  <0>         0.5900
     21 N21        -6.8556    2.0050   54.1436 N.am    1  <0>        -0.8600
     22 O22        -8.0744    2.6278   52.3931 O.2     1  <0>        -0.5300
     23 C23        -4.5286    2.7329   52.3717 C.2     1  <0>        -0.0600
     24 C24        -1.6328    3.7620   52.0332 C.2     1  <0>        -0.3200
     25 S25         0.0794    3.7993   51.6207 S.3     1  <0>         0.2500
     26 H26         4.2159    3.5137   51.7353 H       1  <0>         0.0600
     27 H27         3.0673    2.1546   51.7769 H       1  <0>         0.0600
     28 H28         4.8101    1.8534   51.9779 H       1  <0>         0.0600
     29 H29         3.4664    2.9115   49.4496 H       1  <0>         0.0600
     30 H30         5.2091    2.6104   49.6506 H       1  <0>         0.0700
     31 H31         5.0444    1.0004   47.7092 H       1  <0>         0.0700
     32 H32         6.0687    0.5068   49.0787 H       1  <0>         0.0600
     33 H33         4.9418   -0.6592   48.3447 H       1  <0>         0.0500
     34 H34         1.7041   -2.0447   47.2275 H       1  <0>         0.0900
     35 H35         1.0707   -0.3854   47.1078 H       1  <0>         0.0500
     36 H36         2.7463   -0.7357   46.6199 H       1  <0>         0.0500
     37 H37         0.9309    2.6429   48.6184 H       1  <0>         0.4200
     38 H38        -4.1598    2.0891   49.1738 H       1  <0>         0.1800
     39 H39        -6.5221    1.8235   50.1030 H       1  <0>         0.4200
     40 H40        -7.6389    1.9772   54.7152 H       1  <0>         0.4000
     41 H41        -5.9832    1.7835   54.5051 H       1  <0>         0.4100
     42 H42        -4.2182    3.0189   53.3658 H       1  <0>         0.1500
     43 H43        -2.1044    4.3107   52.8349 H       1  <0>         0.1800
@<TRIPOS>BOND
     1     1     2    1
     2     1    26    1
     3     1    27    1
     4     1    28    1
     5     2     3    1
     6     2    29    1
     7     2    30    1
     8     3     4    1
     9     3     5    1
    10     3     6    1
    11     5    31    1
    12     5    32    1
    13     5    33    1
    14     6     7    1
    15     6     8    1
    16     6    10    1
    17     8     9    1
    18     9    34    1
    19     9    35    1
    20     9    36    1
    21    10    11    2
    22    10    12   am
    23    12    13    1
    24    12    37    1
    25    13    25    1
    26    13    14    2
    27    14    15    1
    28    15    16    1
    29    15    24    2
    30    16    23    1
    31    16    17    2
    32    17    18    1
    33    17    38    1
    34    18    19    1
    35    18    39    1
    36    19    20    1
    37    19    23    2
    38    20    21   am
    39    20    22    2
    40    21    40    1
    41    21    41    1
    42    23    42    1
    43    24    25    1
    44    24    43    1
@<TRIPOS>SUBSTRUCTURE
     1 <0>         1 TEMP              0 ****  ****    0 ROOT


##########                                Name:    ZINC000329637067
##########                DOCK_Rotatable_Bonds:                   5
##########                         Heavy_Atoms:                  26
##########                    Molecular_Weight:             362.429
##########                DOCK_Rotatable_Bonds:                   5
##########                       Formal_Charge:           0.0199998
##########                     HBond_Acceptors:                   8
##########                        HBond_Donors:                   0
##########                         Heavy_Atoms:                  26
##########                          Grid_Score:          -28.482210
##########                     Grid_vdw_energy:          -28.228298
##########                      Grid_es_energy:           -0.253912
##########           Internal_energy_repulsive:           26.938854

@<TRIPOS>MOLECULE
ZINC000329637067
 52 54 1 0 0
SMALL
USER_CHARGES


@<TRIPOS>ATOM
      1 C1         -3.6081    3.9851   53.7075 C.3     1  ZINC000329637067   -0.1300
      2 C2         -3.2563    3.2410   52.4451 C.2     1  ZINC000329637067    0.2200
      3 C3         -1.9634    3.1638   52.0291 C.2     1  ZINC000329637067   -0.2900
      4 C4         -1.6683    2.4665   50.8539 C.2     1  ZINC000329637067    0.2800
      5 C5         -0.2438    2.3664   50.3724 C.3     1  ZINC000329637067   -0.1200
      6 N6         -2.6387    1.8967   50.1685 N.2     1  ZINC000329637067   -0.5500
      7 C7         -3.9059    1.9759   50.5819 C.2     1  ZINC000329637067    0.6400
      8 O8         -4.7856    1.4397   49.9292 O.2     1  ZINC000329637067   -0.5300
      9 N9         -4.2258    2.6343   51.7116 N.am    1  ZINC000329637067   -0.5000
     10 C10        -5.6234    2.7069   52.1448 C.3     1  ZINC000329637067    0.0700
     11 C11        -6.2650    3.9420   51.5667 C.2     1  ZINC000329637067    0.5100
     12 O12        -5.7075    4.5578   50.6829 O.2     1  ZINC000329637067   -0.5200
     13 N13        -7.4581    4.3622   52.0317 N.am    1  ZINC000329637067   -0.6100
     14 C14        -8.0960    5.5644   51.4781 C.3     1  ZINC000329637067    0.1000
     15 C15        -9.5166    5.2070   51.0302 C.3     1  ZINC000329637067   -0.1400
     16 C16       -10.2733    4.5767   52.2017 C.3     1  ZINC000329637067   -0.1000
     17 C17        -9.5658    3.2910   52.6356 C.3     1  ZINC000329637067   -0.1200
     18 H18        -9.5185    2.5999   51.7940 H       1  ZINC000329637067    0.1000
     19 C19       -10.3300    2.6537   53.7673 C.2     1  ZINC000329637067    0.5300
     20 O20       -11.1732    3.2896   54.3635 O.2     1  ZINC000329637067   -0.5300
     21 N21       -10.0763    1.3771   54.1171 N.am    1  ZINC000329637067   -0.6200
     22 C22       -10.8138    0.7315   55.2146 C.3     1  ZINC000329637067    0.0800
     23 C23       -11.3518   -0.6126   54.7107 C.3     1  ZINC000329637067    0.0500
     24 O24       -10.2788   -1.3643   54.1384 O.3     1  ZINC000329637067   -0.3800
     25 C25        -9.6776   -0.7497   52.9962 C.3     1  ZINC000329637067    0.0500
     26 C26        -9.0579    0.5857   53.4086 C.3     1  ZINC000329637067    0.0700
     27 C27        -8.1485    3.6233   53.0975 C.3     1  ZINC000329637067    0.1200
     28 H28        -4.1488    3.3210   54.3820 H       1  ZINC000329637067    0.0900
     29 H29        -2.6948    4.3303   54.1922 H       1  ZINC000329637067    0.1000
     30 H30        -4.2351    4.8420   53.4614 H       1  ZINC000329637067    0.0900
     31 H31        -1.1760    3.6350   52.5986 H       1  ZINC000329637067    0.1600
     32 H32         0.2225    1.4786   50.7996 H       1  ZINC000329637067    0.1000
     33 H33        -0.2320    2.2953   49.2848 H       1  ZINC000329637067    0.0900
     34 H34         0.3084    3.2528   50.6846 H       1  ZINC000329637067    0.0900
     35 H35        -6.1580    1.8231   51.7969 H       1  ZINC000329637067    0.1200
     36 H36        -5.6645    2.7516   53.2331 H       1  ZINC000329637067    0.1300
     37 H37        -8.1382    6.3405   52.2424 H       1  ZINC000329637067    0.0800
     38 H38        -7.5222    5.9218   50.6230 H       1  ZINC000329637067    0.0900
     39 H39       -10.0341    6.1101   50.7065 H       1  ZINC000329637067    0.0900
     40 H40        -9.4698    4.4979   50.2036 H       1  ZINC000329637067    0.0700
     41 H41       -10.2983    5.2770   53.0366 H       1  ZINC000329637067    0.0800
     42 H42       -11.2923    4.3440   51.8926 H       1  ZINC000329637067    0.0800
     43 H43       -10.1448    0.5659   56.0590 H       1  ZINC000329637067    0.0800
     44 H44       -11.6441    1.3670   55.5226 H       1  ZINC000329637067    0.1000
     45 H45       -11.7816   -1.1684   55.5441 H       1  ZINC000329637067    0.1100
     46 H46       -12.1176   -0.4381   53.9550 H       1  ZINC000329637067    0.0600
     47 H47        -8.9029   -1.4039   52.5963 H       1  ZINC000329637067    0.1100
     48 H48       -10.4373   -0.5756   52.2343 H       1  ZINC000329637067    0.0600
     49 H49        -8.7233    1.1244   52.5222 H       1  ZINC000329637067    0.1000
     50 H50        -8.2116    0.4082   54.0723 H       1  ZINC000329637067    0.0800
     51 H51        -7.6089    2.7011   53.3133 H       1  ZINC000329637067    0.1000
     52 H52        -8.1920    4.2419   53.9939 H       1  ZINC000329637067    0.0800
@<TRIPOS>BOND
     1     1     2    1
     2     1    28    1
     3     1    29    1
     4     1    30    1
     5     2     9    1
     6     2     3    2
     7     3     4    1
     8     3    31    1
     9     4     5    1
    10     4     6    2
    11     5    32    1
    12     5    33    1
    13     5    34    1
    14     6     7    1
    15     7     8    2
    16     7     9   am
    17     9    10    1
    18    10    11    1
    19    10    35    1
    20    10    36    1
    21    11    12    2
    22    11    13   am
    23    13    27    1
    24    13    14    1
    25    14    15    1
    26    14    37    1
    27    14    38    1
    28    15    16    1
    29    15    39    1
    30    15    40    1
    31    16    17    1
    32    16    41    1
    33    16    42    1
    34    17    18    1
    35    17    19    1
    36    17    27    1
    37    19    20    2
    38    19    21   am
    39    21    26    1
    40    21    22    1
    41    22    23    1
    42    22    43    1
    43    22    44    1
    44    23    24    1
    45    23    45    1
    46    23    46    1
    47    24    25    1
    48    25    26    1
    49    25    47    1
    50    25    48    1
    51    26    49    1
    52    26    50    1
    53    27    51    1
    54    27    52    1
@<TRIPOS>SUBSTRUCTURE
     1 ZINC000329637067        1 TEMP              0 ****  ****    0 ROOT


##########                                Name:    ZINC000265724350
##########                DOCK_Rotatable_Bonds:                   8
##########                         Heavy_Atoms:                  23
##########                    Molecular_Weight:              345.42
##########                DOCK_Rotatable_Bonds:                   8
##########                       Formal_Charge:          -0.0300002
##########                     HBond_Acceptors:                   9
##########                        HBond_Donors:                   2
##########                         Heavy_Atoms:                  23
##########                          Grid_Score:          -28.453501
##########                     Grid_vdw_energy:          -27.700401
##########                      Grid_es_energy:           -0.753100
##########           Internal_energy_repulsive:            7.098008

@<TRIPOS>MOLECULE
ZINC000265724350
 46 47 1 0 0
SMALL
USER_CHARGES


@<TRIPOS>ATOM
      1 C1          4.2409    0.8113   49.4005 C.3     1  ZINC000265724350    0.0800
      2 N2          3.6120   -0.2238   48.5762 N.am    1  ZINC000265724350   -1.1100
      3 S3          2.4915    0.1967   47.4317 S.o2    1  ZINC000265724350    2.7200
      4 O4          3.1040    1.1846   46.6143 O.2     1  ZINC000265724350   -0.9300
      5 O5          1.9659   -1.0198   46.9187 O.2     1  ZINC000265724350   -0.9300
      6 C6          1.1647    0.9974   48.2702 C.2     1  ZINC000265724350   -0.5600
      7 C7         -0.1362    0.9541   47.9069 C.2     1  ZINC000265724350   -0.0900
      8 C8         -0.8514    1.7211   48.8400 C.2     1  ZINC000265724350   -0.1400
      9 C9          0.0608    2.1995   49.7364 C.2     1  ZINC000265724350   -0.0200
     10 C10        -0.2328    3.0537   50.8918 C.2     1  ZINC000265724350    0.6000
     11 O11         0.6627    3.6774   51.4306 O.2     1  ZINC000265724350   -0.5000
     12 N12        -1.4942    3.1481   51.3570 N.am    1  ZINC000265724350   -0.7100
     13 C13        -1.7877    4.0027   52.5101 C.3     1  ZINC000265724350    0.1200
     14 C14        -3.0971    3.5506   53.1598 C.3     1  ZINC000265724350   -0.1100
     15 H15        -3.0867    2.4677   53.2829 H       1  ZINC000265724350    0.0800
     16 C16        -3.2443    4.2182   54.5285 C.3     1  ZINC000265724350   -0.1400
     17 C17        -4.2738    3.9513   52.2678 C.3     1  ZINC000265724350    0.0600
     18 N18        -5.4941    3.2812   52.7369 N.3     1  ZINC000265724350   -0.5300
     19 C19        -5.7090    2.0157   52.0204 C.3     1  ZINC000265724350    0.0100
     20 C20        -6.9545    1.3235   52.5802 C.3     1  ZINC000265724350    0.0600
     21 O21        -8.0746    2.2057   52.4689 O.3     1  ZINC000265724350   -0.3900
     22 C22        -7.8997    3.4479   53.1556 C.3     1  ZINC000265724350    0.0600
     23 C23        -6.6638    4.1616   52.6015 C.3     1  ZINC000265724350    0.0200
     24 O24         1.2786    1.7444   49.3760 O.3     1  ZINC000265724350   -0.1100
     25 H25         4.9451    0.3476   50.0913 H       1  ZINC000265724350    0.0900
     26 H26         4.7714    1.5146   48.7586 H       1  ZINC000265724350    0.0600
     27 H27         3.4741    1.3418   49.9651 H       1  ZINC000265724350    0.0700
     28 H28         3.8520   -1.1553   48.7008 H       1  ZINC000265724350    0.4200
     29 H29        -0.5481    0.4282   47.0583 H       1  ZINC000265724350    0.1800
     30 H30        -1.9166    1.8985   48.8472 H       1  ZINC000265724350    0.1700
     31 H31        -2.2077    2.6500   50.9283 H       1  ZINC000265724350    0.4100
     32 H32        -0.9772    3.9262   53.2348 H       1  ZINC000265724350    0.0800
     33 H33        -1.8839    5.0372   52.1805 H       1  ZINC000265724350    0.0700
     34 H34        -2.4059    3.9328   55.1641 H       1  ZINC000265724350    0.0500
     35 H35        -3.2547    5.3012   54.4054 H       1  ZINC000265724350    0.0600
     36 H36        -4.1771    3.8962   54.9914 H       1  ZINC000265724350    0.0700
     37 H37        -4.4124    5.0315   52.3125 H       1  ZINC000265724350    0.0800
     38 H38        -4.0682    3.6535   51.2396 H       1  ZINC000265724350    0.0400
     39 H39        -5.8512    2.2180   50.9588 H       1  ZINC000265724350    0.0400
     40 H40        -4.8417    1.3693   52.1552 H       1  ZINC000265724350    0.0900
     41 H41        -7.1504    0.4130   52.0139 H       1  ZINC000265724350    0.1000
     42 H42        -6.7913    1.0729   53.6285 H       1  ZINC000265724350    0.0600
     43 H43        -8.7793    4.0738   53.0054 H       1  ZINC000265724350    0.1000
     44 H44        -7.7641    3.2591   54.2205 H       1  ZINC000265724350    0.0600
     45 H45        -6.4935    5.0816   53.1606 H       1  ZINC000265724350    0.0900
     46 H46        -6.8213    4.3982   51.5492 H       1  ZINC000265724350    0.0400
@<TRIPOS>BOND
     1     1     2    1
     2     1    25    1
     3     1    26    1
     4     1    27    1
     5     2     3   am
     6     2    28    1
     7     3     4    2
     8     3     5    2
     9     3     6    1
    10     6    24    1
    11     6     7    2
    12     7     8    1
    13     7    29    1
    14     8     9    2
    15     8    30    1
    16     9    10    1
    17     9    24    1
    18    10    11    2
    19    10    12   am
    20    12    13    1
    21    12    31    1
    22    13    14    1
    23    13    32    1
    24    13    33    1
    25    14    15    1
    26    14    16    1
    27    14    17    1
    28    16    34    1
    29    16    35    1
    30    16    36    1
    31    17    18    1
    32    17    37    1
    33    17    38    1
    34    18    23    1
    35    18    19    1
    36    19    20    1
    37    19    39    1
    38    19    40    1
    39    20    21    1
    40    20    41    1
    41    20    42    1
    42    21    22    1
    43    22    23    1
    44    22    43    1
    45    22    44    1
    46    23    45    1
    47    23    46    1
@<TRIPOS>SUBSTRUCTURE
     1 ZINC000265724350        1 TEMP              0 ****  ****    0 ROOT


##########                                Name:    ZINC000265786263
##########                DOCK_Rotatable_Bonds:                   7
##########                         Heavy_Atoms:                  28
##########                    Molecular_Weight:             386.451
##########                DOCK_Rotatable_Bonds:                   7
##########                       Formal_Charge:           0.0499992
##########                     HBond_Acceptors:                   8
##########                        HBond_Donors:                   2
##########                         Heavy_Atoms:                  28
##########                          Grid_Score:          -28.438362
##########                     Grid_vdw_energy:          -26.698711
##########                      Grid_es_energy:           -1.739652
##########           Internal_energy_repulsive:           22.985052

@<TRIPOS>MOLECULE
ZINC000265786263
 54 57 1 0 0
SMALL
USER_CHARGES


@<TRIPOS>ATOM
      1 C1        -10.9389    0.4899   60.9728 C.3     1  ZINC000265786263   -0.1500
      2 C2         -9.4644    0.8944   61.0324 C.3     1  ZINC000265786263    0.1600
      3 C3         -9.0282    1.1205   62.4814 C.3     1  ZINC000265786263   -0.1600
      4 C4         -9.1525   -0.0584   63.4487 C.3     1  ZINC000265786263   -0.1600
      5 C5         -7.7728    0.3906   62.9632 C.3     1  ZINC000265786263   -0.1600
      6 N6         -8.6206   -0.1259   60.3869 N.am    1  ZINC000265786263   -0.7100
      7 C7         -8.0065    0.4797   59.3544 C.2     1  ZINC000265786263    0.7100
      8 O8         -7.2317   -0.0822   58.6053 O.2     1  ZINC000265786263   -0.5400
      9 N9         -8.3439    1.7697   59.2445 N.am    1  ZINC000265786263   -0.5600
     10 C10        -7.8271    2.6704   58.2110 C.3     1  ZINC000265786263    0.1000
     11 C11        -8.6232    2.4906   56.9441 C.2     1  ZINC000265786263    0.5100
     12 O12        -9.2909    1.4909   56.7842 O.2     1  ZINC000265786263   -0.5300
     13 N13        -8.5931    3.4409   55.9889 N.am    1  ZINC000265786263   -0.6100
     14 C14        -7.7838    4.6572   56.1592 C.3     1  ZINC000265786263    0.1100
     15 C15        -6.9111    4.8397   54.9129 C.3     1  ZINC000265786263    0.0400
     16 N16        -7.7626    4.8228   53.7160 N.3     1  ZINC000265786263   -0.5300
     17 C17        -6.9895    5.1656   52.5150 C.3     1  ZINC000265786263    0.0900
     18 C18        -6.0507    4.0347   52.1820 C.ar    1  ZINC000265786263   -0.0600
     19 C19        -6.4316    3.0661   51.2722 C.ar    1  ZINC000265786263   -0.1300
     20 C20        -5.5725    2.0270   50.9645 C.ar    1  ZINC000265786263   -0.1000
     21 C21        -4.3312    1.9546   51.5660 C.ar    1  ZINC000265786263   -0.1400
     22 C22        -3.9466    2.9256   52.4795 C.ar    1  ZINC000265786263    0.1100
     23 O23        -2.7256    2.8567   53.0724 O.3     1  ZINC000265786263   -0.5000
     24 C24        -4.8079    3.9698   52.7822 C.ar    1  ZINC000265786263   -0.1200
     25 C25        -8.4335    3.5256   53.5577 C.3     1  ZINC000265786263    0.0400
     26 C26        -9.3638    3.2863   54.7458 C.3     1  ZINC000265786263    0.1200
     27 C27        -9.2187    2.1380   60.2013 C.2     1  ZINC000265786263    0.5400
     28 O28        -9.7078    3.2354   60.3630 O.2     1  ZINC000265786263   -0.4500
     29 H29       -11.2211    0.2968   59.9379 H       1  ZINC000265786263    0.0700
     30 H30       -11.0924   -0.4118   61.5656 H       1  ZINC000265786263    0.0800
     31 H31       -11.5534    1.2966   61.3726 H       1  ZINC000265786263    0.0900
     32 H32        -9.2132    2.1189   62.8777 H       1  ZINC000265786263    0.1100
     33 H33        -9.4195    0.1643   64.4818 H       1  ZINC000265786263    0.1000
     34 H34        -9.5451   -0.9950   63.0529 H       1  ZINC000265786263    0.1100
     35 H35        -7.2577   -0.2507   62.2480 H       1  ZINC000265786263    0.1000
     36 H36        -7.1321    0.9087   63.6769 H       1  ZINC000265786263    0.1000
     37 H37        -8.5258   -1.0534   60.6544 H       1  ZINC000265786263    0.4400
     38 H38        -7.9142    3.7021   58.5517 H       1  ZINC000265786263    0.1300
     39 H39        -6.7797    2.4387   58.0180 H       1  ZINC000265786263    0.1300
     40 H40        -8.4396    5.5199   56.2765 H       1  ZINC000265786263    0.0900
     41 H41        -7.1487    4.5541   57.0391 H       1  ZINC000265786263    0.0900
     42 H42        -6.3866    5.7933   54.9727 H       1  ZINC000265786263    0.0900
     43 H43        -6.1858    4.0282   54.8547 H       1  ZINC000265786263    0.0400
     44 H44        -7.6700    5.3308   51.6796 H       1  ZINC000265786263    0.0900
     45 H45        -6.4142    6.0728   52.6998 H       1  ZINC000265786263    0.0500
     46 H46        -7.4019    3.1208   50.8010 H       1  ZINC000265786263    0.1200
     47 H47        -5.8725    1.2715   50.2536 H       1  ZINC000265786263    0.1300
     48 H48        -3.6607    1.1427   51.3256 H       1  ZINC000265786263    0.1300
     49 H49        -2.1957    2.0971   52.7943 H       1  ZINC000265786263    0.3900
     50 H50        -4.5108    4.7267   53.4930 H       1  ZINC000265786263    0.1300
     51 H51        -9.0131    3.5261   52.6345 H       1  ZINC000265786263    0.1000
     52 H52        -7.6869    2.7324   53.5184 H       1  ZINC000265786263    0.0400
     53 H53        -9.7756    2.2786   54.6913 H       1  ZINC000265786263    0.1000
     54 H54       -10.1728    4.0168   54.7303 H       1  ZINC000265786263    0.0800
@<TRIPOS>BOND
     1     1     2    1
     2     1    29    1
     3     1    30    1
     4     1    31    1
     5     2    27    1
     6     2     3    1
     7     2     6    1
     8     3     5    1
     9     3     4    1
    10     3    32    1
    11     4     5    1
    12     4    33    1
    13     4    34    1
    14     5    35    1
    15     5    36    1
    16     6     7   am
    17     6    37    1
    18     7     8    2
    19     7     9   am
    20     9    10    1
    21     9    27   am
    22    10    11    1
    23    10    38    1
    24    10    39    1
    25    11    12    2
    26    11    13   am
    27    13    26    1
    28    13    14    1
    29    14    15    1
    30    14    40    1
    31    14    41    1
    32    15    16    1
    33    15    42    1
    34    15    43    1
    35    16    17    1
    36    16    25    1
    37    17    18    1
    38    17    44    1
    39    17    45    1
    40    18    24   ar
    41    18    19   ar
    42    19    20   ar
    43    19    46    1
    44    20    21   ar
    45    20    47    1
    46    21    22   ar
    47    21    48    1
    48    22    23    1
    49    22    24   ar
    50    23    49    1
    51    24    50    1
    52    25    26    1
    53    25    51    1
    54    25    52    1
    55    26    53    1
    56    26    54    1
    57    27    28    2
@<TRIPOS>SUBSTRUCTURE
     1 ZINC000265786263        1 TEMP              0 ****  ****    0 ROOT


##########                                Name:    ZINC001344051361
##########                DOCK_Rotatable_Bonds:                   8
##########                         Heavy_Atoms:                  28
##########                    Molecular_Weight:             379.456
##########                DOCK_Rotatable_Bonds:                   8
##########                       Formal_Charge:          -0.0100006
##########                     HBond_Acceptors:                   5
##########                        HBond_Donors:                   0
##########                         Heavy_Atoms:                  28
##########                          Grid_Score:          -28.414368
##########                     Grid_vdw_energy:          -28.563374
##########                      Grid_es_energy:            0.149006
##########           Internal_energy_repulsive:           22.050579

@<TRIPOS>MOLECULE
ZINC001344051361
 53 56 1 0 0
SMALL
USER_CHARGES


@<TRIPOS>ATOM
      1 O1         -0.5832    1.7827   49.5303 O.2     1  ZINC001344051361   -0.4800
      2 C2         -0.4987    2.3129   50.6127 C.2     1  ZINC001344051361    0.4800
      3 O3         -1.6107    2.6100   51.3032 O.3     1  ZINC001344051361   -0.3500
      4 C4         -2.8794    2.2439   50.6990 C.3     1  ZINC001344051361    0.0700
      5 C5         -4.0032    2.4292   51.7207 C.3     1  ZINC001344051361   -0.1000
      6 H6         -3.7203    1.9583   52.6621 H       1  ZINC001344051361    0.0900
      7 C7         -4.2446    3.9230   51.9491 C.3     1  ZINC001344051361   -0.1200
      8 C8         -5.3460    4.1094   52.9952 C.3     1  ZINC001344051361   -0.1300
      9 C9         -6.6454    3.4829   52.4798 C.3     1  ZINC001344051361    0.0800
     10 N10        -6.3851    2.0822   52.1205 N.am    1  ZINC001344051361   -0.6100
     11 C11        -7.1393    1.0901   52.6338 C.2     1  ZINC001344051361    0.5600
     12 O12        -6.9138   -0.0648   52.3288 O.2     1  ZINC001344051361   -0.5300
     13 C13        -8.2408    1.4064   53.5679 C.ar    1  ZINC001344051361   -0.1300
     14 C14        -8.0246    1.3653   54.9462 C.ar    1  ZINC001344051361   -0.1000
     15 C15        -9.0566    1.6620   55.8124 C.ar    1  ZINC001344051361   -0.1300
     16 C16       -10.3038    1.9993   55.3175 C.ar    1  ZINC001344051361   -0.0900
     17 C17       -10.5250    2.0415   53.9524 C.ar    1  ZINC001344051361   -0.1300
     18 C18        -9.4998    1.7531   53.0752 C.ar    1  ZINC001344051361   -0.0600
     19 C19        -5.2872    1.7829   51.1912 C.3     1  ZINC001344051361    0.1200
     20 C20         0.8554    2.6350   51.1903 C.3     1  ZINC001344051361    0.0200
     21 O21         1.8733    1.6599   50.9556 O.3     1  ZINC001344051361   -0.2500
     22 C22         2.3297    1.5388   49.6813 C.ar    1  ZINC001344051361    0.1200
     23 C23         2.0388    2.5186   48.7431 C.ar    1  ZINC001344051361   -0.2000
     24 C24         2.5044    2.3935   47.4484 C.ar    1  ZINC001344051361   -0.0800
     25 C25         3.2593    1.2927   47.0873 C.ar    1  ZINC001344051361   -0.1500
     26 C26         3.5502    0.3149   48.0204 C.ar    1  ZINC001344051361   -0.0800
     27 C27         3.0923    0.4384   49.3179 C.ar    1  ZINC001344051361   -0.1400
     28 C28         1.2786    4.1050   51.2218 C.3     1  ZINC001344051361   -0.1700
     29 C29         0.8948    3.3914   52.5197 C.3     1  ZINC001344051361   -0.1100
     30 H30        -3.0666    2.8797   49.8337 H       1  ZINC001344051361    0.0800
     31 H31        -2.8439    1.2014   50.3830 H       1  ZINC001344051361    0.0800
     32 H32        -3.3252    4.3896   52.3028 H       1  ZINC001344051361    0.0700
     33 H33        -4.5508    4.3888   51.0125 H       1  ZINC001344051361    0.0700
     34 H34        -5.0511    3.6225   53.9248 H       1  ZINC001344051361    0.0700
     35 H35        -5.5012    5.1733   53.1745 H       1  ZINC001344051361    0.0800
     36 H36        -7.4058    3.5248   53.2597 H       1  ZINC001344051361    0.1100
     37 H37        -6.9902    4.0275   51.6008 H       1  ZINC001344051361    0.0700
     38 H38        -7.0517    1.1013   55.3338 H       1  ZINC001344051361    0.1400
     39 H39        -8.8906    1.6305   56.8791 H       1  ZINC001344051361    0.1300
     40 H40       -11.1084    2.2304   55.9998 H       1  ZINC001344051361    0.1300
     41 H41       -11.5009    2.3052   53.5725 H       1  ZINC001344051361    0.1300
     42 H42        -9.6737    1.7867   52.0098 H       1  ZINC001344051361    0.1300
     43 H43        -5.5207    2.1889   50.2069 H       1  ZINC001344051361    0.0700
     44 H44        -5.1519    0.7036   51.1209 H       1  ZINC001344051361    0.1000
     45 H45         1.4486    3.3781   49.0245 H       1  ZINC001344051361    0.1300
     46 H46         2.2781    3.1558   46.7177 H       1  ZINC001344051361    0.1300
     47 H47         3.6220    1.1966   46.0746 H       1  ZINC001344051361    0.1300
     48 H48         4.1398   -0.5441   47.7358 H       1  ZINC001344051361    0.1300
     49 H49         3.3197   -0.3258   50.0465 H       1  ZINC001344051361    0.1300
     50 H50         2.3335    4.3286   51.0635 H       1  ZINC001344051361    0.1200
     51 H51         0.5775    4.8391   50.8248 H       1  ZINC001344051361    0.1200
     52 H52        -0.0588    3.6561   52.9766 H       1  ZINC001344051361    0.1200
     53 H53         1.6973    3.1455   53.2151 H       1  ZINC001344051361    0.1200
@<TRIPOS>BOND
     1     1     2    2
     2     2     3    1
     3     2    20    1
     4     3     4    1
     5     4     5    1
     6     4    30    1
     7     4    31    1
     8     5     6    1
     9     5    19    1
    10     5     7    1
    11     7     8    1
    12     7    32    1
    13     7    33    1
    14     8     9    1
    15     8    34    1
    16     8    35    1
    17     9    10    1
    18     9    36    1
    19     9    37    1
    20    10    11   am
    21    10    19    1
    22    11    12    2
    23    11    13    1
    24    13    18   ar
    25    13    14   ar
    26    14    15   ar
    27    14    38    1
    28    15    16   ar
    29    15    39    1
    30    16    17   ar
    31    16    40    1
    32    17    18   ar
    33    17    41    1
    34    18    42    1
    35    19    43    1
    36    19    44    1
    37    20    29    1
    38    20    21    1
    39    20    28    1
    40    21    22    1
    41    22    27   ar
    42    22    23   ar
    43    23    24   ar
    44    23    45    1
    45    24    25   ar
    46    24    46    1
    47    25    26   ar
    48    25    47    1
    49    26    27   ar
    50    26    48    1
    51    27    49    1
    52    28    29    1
    53    28    50    1
    54    28    51    1
    55    29    52    1
    56    29    53    1
@<TRIPOS>SUBSTRUCTURE
     1 ZINC001344051361        1 TEMP              0 ****  ****    0 ROOT


##########                                Name:    ZINC000573150059
##########                DOCK_Rotatable_Bonds:                   7
##########                         Heavy_Atoms:                  23
##########                    Molecular_Weight:             378.269
##########                DOCK_Rotatable_Bonds:                   7
##########                       Formal_Charge:        -2.98023e-07
##########                     HBond_Acceptors:                   5
##########                        HBond_Donors:                   2
##########                         Heavy_Atoms:                  23
##########                          Grid_Score:          -28.411209
##########                     Grid_vdw_energy:          -28.499943
##########                      Grid_es_energy:            0.088734
##########           Internal_energy_repulsive:           11.580568

@<TRIPOS>MOLECULE
ZINC000573150059
 43 44 1 0 0
SMALL
USER_CHARGES


@<TRIPOS>ATOM
      1 C1        -10.4617   -2.0285   55.8853 C.3     1  ZINC000573150059    0.0300
      2 O2         -9.8200   -1.2143   54.9018 O.3     1  ZINC000573150059   -0.3600
      3 C3        -10.4996    0.0130   54.6298 C.3     1  ZINC000573150059    0.0700
      4 H4        -11.5284   -0.1982   54.3385 H       1  ZINC000573150059    0.0900
      5 C5        -10.4943    0.8879   55.8849 C.3     1  ZINC000573150059   -0.1700
      6 C6         -9.7990    0.7375   53.5094 C.2     1  ZINC000573150059    0.5100
      7 O7         -9.1166    0.1188   52.7203 O.2     1  ZINC000573150059   -0.4900
      8 N8         -9.9306    2.0729   53.3843 N.am    1  ZINC000573150059   -0.6700
      9 C9         -9.2801    2.7456   52.3440 C.ar    1  ZINC000573150059    0.1900
     10 C10       -10.0195    3.3177   51.3165 C.ar    1  ZINC000573150059   -0.2000
     11 C11        -9.3782    3.9822   50.2886 C.ar    1  ZINC000573150059   -0.0500
     12 C12        -8.0004    4.0806   50.2794 C.ar    1  ZINC000573150059   -0.2200
     13 C13        -7.2548    3.5109   51.3047 C.ar    1  ZINC000573150059    0.2400
     14 N14        -5.8618    3.6111   51.2950 N.pl3   1  ZINC000573150059   -0.7300
     15 C15        -5.0405    2.4318   51.5799 C.3     1  ZINC000573150059    0.2000
     16 H16        -5.4407    1.9122   52.4504 H       1  ZINC000573150059    0.1000
     17 C17        -5.0599    1.4929   50.3719 C.3     1  ZINC000573150059   -0.1700
     18 C18        -3.6234    2.8621   51.8589 C.ar    1  ZINC000573150059    0.1400
     19 C19        -3.3247    3.4968   53.0495 C.ar    1  ZINC000573150059   -0.1600
     20 C20        -2.0178    3.8884   53.2973 C.ar    1  ZINC000573150059   -0.0400
     21 C21        -1.0560    3.6255   52.3330 C.ar    1  ZINC000573150059   -0.1500
     22 Br22        0.7439    4.1342   52.6119 Br      1  ZINC000573150059   -0.0300
     23 C23        -1.4303    2.9860   51.1650 C.ar    1  ZINC000573150059    0.1400
     24 N24        -2.6823    2.6236   50.9664 N.ar    1  ZINC000573150059   -0.4700
     25 C25        -7.8963    2.8470   52.3406 C.ar    1  ZINC000573150059   -0.1900
     26 H26       -10.5250   -1.4806   56.8254 H       1  ZINC000573150059    0.0500
     27 H27       -11.4653   -2.2849   55.5460 H       1  ZINC000573150059    0.0400
     28 H28        -9.8844   -2.9409   56.0346 H       1  ZINC000573150059    0.0900
     29 H29        -9.4653    1.0991   56.1762 H       1  ZINC000573150059    0.0700
     30 H30       -11.0126    1.8241   55.6775 H       1  ZINC000573150059    0.0700
     31 H31       -11.0010    0.3639   56.6953 H       1  ZINC000573150059    0.0700
     32 H32       -10.4764    2.5678   54.0153 H       1  ZINC000573150059    0.4100
     33 H33       -11.0970    3.2425   51.3208 H       1  ZINC000573150059    0.1200
     34 H34        -9.9554    4.4255   49.4907 H       1  ZINC000573150059    0.1300
     35 H35        -7.5021    4.6004   49.4745 H       1  ZINC000573150059    0.1200
     36 H36        -5.4380    4.4615   51.0996 H       1  ZINC000573150059    0.4100
     37 H37        -4.6597    2.0126   49.5013 H       1  ZINC000573150059    0.0600
     38 H38        -4.4489    0.6156   50.5839 H       1  ZINC000573150059    0.0700
     39 H39        -6.0849    1.1818   50.1700 H       1  ZINC000573150059    0.0700
     40 H40        -4.0994    3.6857   53.7778 H       1  ZINC000573150059    0.1500
     41 H41        -1.7552    4.3866   54.2188 H       1  ZINC000573150059    0.1500
     42 H42        -0.6878    2.7777   50.4089 H       1  ZINC000573150059    0.1700
     43 H43        -7.3193    2.4038   53.1388 H       1  ZINC000573150059    0.1400
@<TRIPOS>BOND
     1     1     2    1
     2     1    26    1
     3     1    27    1
     4     1    28    1
     5     2     3    1
     6     3     4    1
     7     3     5    1
     8     3     6    1
     9     5    29    1
    10     5    30    1
    11     5    31    1
    12     6     7    2
    13     6     8   am
    14     8     9    1
    15     8    32    1
    16     9    25   ar
    17     9    10   ar
    18    10    11   ar
    19    10    33    1
    20    11    12   ar
    21    11    34    1
    22    12    13   ar
    23    12    35    1
    24    13    14    1
    25    13    25   ar
    26    14    15    1
    27    14    36    1
    28    15    16    1
    29    15    17    1
    30    15    18    1
    31    17    37    1
    32    17    38    1
    33    17    39    1
    34    18    24   ar
    35    18    19   ar
    36    19    20   ar
    37    19    40    1
    38    20    21   ar
    39    20    41    1
    40    21    22    1
    41    21    23   ar
    42    23    24   ar
    43    23    42    1
    44    25    43    1
@<TRIPOS>SUBSTRUCTURE
     1 ZINC000573150059        1 TEMP              0 ****  ****    0 ROOT


##########                                Name:    ZINC000840464592
##########                DOCK_Rotatable_Bonds:                  10
##########                         Heavy_Atoms:                  26
##########                    Molecular_Weight:             360.497
##########                DOCK_Rotatable_Bonds:                  10
##########                       Formal_Charge:          -0.0399996
##########                     HBond_Acceptors:                   5
##########                        HBond_Donors:                   1
##########                         Heavy_Atoms:                  26
##########                          Grid_Score:          -28.405050
##########                     Grid_vdw_energy:          -28.478765
##########                      Grid_es_energy:            0.073716
##########           Internal_energy_repulsive:           80.691460

@<TRIPOS>MOLECULE
ZINC000840464592
 58 59 1 0 0
SMALL
USER_CHARGES


@<TRIPOS>ATOM
      1 C1         -1.5915    2.2554   49.5948 C.3     1  ZINC000840464592   -0.1500
      2 C2         -2.5387    2.6649   50.7244 C.3     1  ZINC000840464592   -0.1300
      3 C3         -3.7928    1.7898   50.6808 C.3     1  ZINC000840464592   -0.1200
      4 C4         -4.7611    2.2310   51.7803 C.3     1  ZINC000840464592   -0.1200
      5 C5         -5.9560    1.2763   51.8208 C.3     1  ZINC000840464592   -0.1200
      6 C6         -6.9624    1.7629   52.8655 C.3     1  ZINC000840464592    0.0600
      7 O7         -8.0138    0.8042   52.9969 O.3     1  ZINC000840464592   -0.3600
      8 C8         -8.9303    1.0880   54.0559 C.3     1  ZINC000840464592    0.0800
      9 H9         -8.3751    1.3567   54.9546 H       1  ZINC000840464592    0.0800
     10 C10        -9.8357    2.2522   53.6486 C.3     1  ZINC000840464592   -0.1800
     11 C11        -9.7726   -0.1308   54.3315 C.2     1  ZINC000840464592    0.5200
     12 O12        -9.8161   -1.0335   53.5226 O.2     1  ZINC000840464592   -0.5000
     13 N13       -10.4776   -0.2179   55.4768 N.am    1  ZINC000840464592   -0.6000
     14 C14       -10.4223    0.8716   56.4481 C.3     1  ZINC000840464592    0.0900
     15 C15        -9.8190    0.4116   57.7705 C.3     1  ZINC000840464592   -0.1600
     16 C16       -10.6969   -0.6707   58.4029 C.3     1  ZINC000840464592    0.0800
     17 N17       -10.2702   -1.9840   57.9074 N.am    1  ZINC000840464592   -0.7200
     18 C18       -10.5163   -2.3429   56.6375 C.2     1  ZINC000840464592    0.5100
     19 O19       -10.1182   -3.4072   56.2133 O.2     1  ZINC000840464592   -0.5200
     20 C20       -11.3008   -1.4033   55.7380 C.3     1  ZINC000840464592    0.1400
     21 H21       -11.5313   -1.9045   54.7980 H       1  ZINC000840464592    0.1300
     22 C22       -12.6007   -0.9935   56.4333 C.3     1  ZINC000840464592   -0.1000
     23 C23       -13.7597   -1.1972   55.4919 C.ar    1  ZINC000840464592   -0.0900
     24 C24       -14.4470   -2.3966   55.4911 C.ar    1  ZINC000840464592   -0.1100
     25 C25       -15.5101   -2.5835   54.6277 C.ar    1  ZINC000840464592   -0.1200
     26 C26       -15.8863   -1.5708   53.7652 C.ar    1  ZINC000840464592   -0.1200
     27 C27       -15.1997   -0.3711   53.7667 C.ar    1  ZINC000840464592   -0.1200
     28 C28       -14.1392   -0.1827   54.6331 C.ar    1  ZINC000840464592   -0.1100
     29 H29        -2.0923    2.3858   48.6355 H       1  ZINC000840464592    0.0500
     30 H30        -0.6980    2.8789   49.6259 H       1  ZINC000840464592    0.0500
     31 H31        -1.3095    1.2098   49.7182 H       1  ZINC000840464592    0.0500
     32 H32        -2.0378    2.5345   51.6837 H       1  ZINC000840464592    0.0600
     33 H33        -2.8208    3.7105   50.6010 H       1  ZINC000840464592    0.0600
     34 H34        -4.2751    1.8940   49.7088 H       1  ZINC000840464592    0.0600
     35 H35        -3.5145    0.7478   50.8385 H       1  ZINC000840464592    0.0600
     36 H36        -4.2499    2.2142   52.7428 H       1  ZINC000840464592    0.0600
     37 H37        -5.1108    3.2421   51.5722 H       1  ZINC000840464592    0.0600
     38 H38        -6.4334    1.2499   50.8412 H       1  ZINC000840464592    0.0700
     39 H39        -5.6131    0.2760   52.0850 H       1  ZINC000840464592    0.0700
     40 H40        -6.4598    1.8847   53.8249 H       1  ZINC000840464592    0.0500
     41 H41        -7.3799    2.7191   52.5500 H       1  ZINC000840464592    0.0500
     42 H42       -10.5806    2.4223   54.4259 H       1  ZINC000840464592    0.0800
     43 H43        -9.2342    3.1519   53.5184 H       1  ZINC000840464592    0.0700
     44 H44       -10.3372    2.0116   52.7112 H       1  ZINC000840464592    0.0800
     45 H45        -9.8149    1.6805   56.0419 H       1  ZINC000840464592    0.1000
     46 H46       -11.4320    1.2412   56.6268 H       1  ZINC000840464592    0.0800
     47 H47        -8.8218    0.0092   57.5920 H       1  ZINC000840464592    0.0800
     48 H48        -9.7473    1.2610   58.4498 H       1  ZINC000840464592    0.1000
     49 H49       -10.5912   -0.6383   59.4872 H       1  ZINC000840464592    0.0900
     50 H50       -11.7386   -0.4997   58.1316 H       1  ZINC000840464592    0.1000
     51 H51        -9.8074   -2.5962   58.5006 H       1  ZINC000840464592    0.4000
     52 H52       -12.7446   -1.6047   57.3243 H       1  ZINC000840464592    0.0900
     53 H53       -12.5446    0.0570   56.7185 H       1  ZINC000840464592    0.1000
     54 H54       -14.1530   -3.1879   56.1649 H       1  ZINC000840464592    0.1200
     55 H55       -16.0466   -3.5209   54.6266 H       1  ZINC000840464592    0.1200
     56 H56       -16.7165   -1.7171   53.0901 H       1  ZINC000840464592    0.1200
     57 H57       -15.4934    0.4200   53.0925 H       1  ZINC000840464592    0.1200
     58 H58       -13.6028    0.7546   54.6342 H       1  ZINC000840464592    0.1200
@<TRIPOS>BOND
     1     1     2    1
     2     1    29    1
     3     1    30    1
     4     1    31    1
     5     2     3    1
     6     2    32    1
     7     2    33    1
     8     3     4    1
     9     3    34    1
    10     3    35    1
    11     4     5    1
    12     4    36    1
    13     4    37    1
    14     5     6    1
    15     5    38    1
    16     5    39    1
    17     6     7    1
    18     6    40    1
    19     6    41    1
    20     7     8    1
    21     8     9    1
    22     8    10    1
    23     8    11    1
    24    10    42    1
    25    10    43    1
    26    10    44    1
    27    11    12    2
    28    11    13   am
    29    13    20    1
    30    13    14    1
    31    14    15    1
    32    14    45    1
    33    14    46    1
    34    15    16    1
    35    15    47    1
    36    15    48    1
    37    16    17    1
    38    16    49    1
    39    16    50    1
    40    17    18   am
    41    17    51    1
    42    18    19    2
    43    18    20    1
    44    20    21    1
    45    20    22    1
    46    22    23    1
    47    22    52    1
    48    22    53    1
    49    23    28   ar
    50    23    24   ar
    51    24    25   ar
    52    24    54    1
    53    25    26   ar
    54    25    55    1
    55    26    27   ar
    56    26    56    1
    57    27    28   ar
    58    27    57    1
    59    28    58    1
@<TRIPOS>SUBSTRUCTURE
     1 ZINC000840464592        1 TEMP              0 ****  ****    0 ROOT


##########                                Name:    ZINC000302023461
##########                DOCK_Rotatable_Bonds:                   3
##########                         Heavy_Atoms:                  25
##########                    Molecular_Weight:             356.362
##########                DOCK_Rotatable_Bonds:                   3
##########                       Formal_Charge:        -2.08616e-07
##########                     HBond_Acceptors:                   9
##########                        HBond_Donors:                   1
##########                         Heavy_Atoms:                  25
##########                          Grid_Score:          -28.384768
##########                     Grid_vdw_energy:          -28.239042
##########                      Grid_es_energy:           -0.145724
##########           Internal_energy_repulsive:           19.449694

@<TRIPOS>MOLECULE
ZINC000302023461
 37 40 1 0 0
SMALL
USER_CHARGES


@<TRIPOS>ATOM
      1 O1          4.0683    4.3294   47.0222 O.2     1  ZINC000302023461   -0.1600
      2 N2          3.4526    3.7820   47.9194 N.pl3   1  ZINC000302023461    0.0200
      3 O3          2.9519    4.4471   48.8084 O.2     1  ZINC000302023461   -0.1300
      4 C4          3.3077    2.3088   47.9259 C.ar    1  ZINC000302023461    0.0000
      5 C5          3.8749    1.5539   46.9186 C.ar    1  ZINC000302023461   -0.0600
      6 C6          3.7400    0.1774   46.9239 C.ar    1  ZINC000302023461   -0.0900
      7 C7          3.0374   -0.4480   47.9376 C.ar    1  ZINC000302023461   -0.0800
      8 C8          2.4674    0.3007   48.9485 C.ar    1  ZINC000302023461   -0.0500
      9 C9          2.6053    1.6833   48.9492 C.ar    1  ZINC000302023461   -0.1100
     10 S10         1.8803    2.6424   50.2372 S.3     1  ZINC000302023461    0.1900
     11 C11         0.1542    2.3733   50.0082 C.2     1  ZINC000302023461    0.2100
     12 N12        -0.3965    1.8071   48.9591 N.2     1  ZINC000302023461   -0.3200
     13 N13        -1.7828    1.7915   49.1824 N.pl3   1  ZINC000302023461   -0.4700
     14 C14        -1.9813    2.3675   50.3896 C.2     1  ZINC000302023461    0.3500
     15 C15        -3.2878    2.5736   51.0509 C.ar    1  ZINC000302023461   -0.0400
     16 C16        -3.5703    3.7870   51.6788 C.ar    1  ZINC000302023461   -0.0900
     17 C17        -4.7887    3.9759   52.2963 C.ar    1  ZINC000302023461   -0.1100
     18 C18        -5.7377    2.9624   52.2965 C.ar    1  ZINC000302023461    0.0800
     19 O19        -6.9300    3.1678   52.9193 O.3     1  ZINC000302023461   -0.3000
     20 C20        -7.9957    2.2735   52.5815 C.3     1  ZINC000302023461    0.0200
     21 C21        -7.4481    0.8403   52.6096 C.3     1  ZINC000302023461    0.0200
     22 O22        -6.3843    0.7484   51.6559 O.3     1  ZINC000302023461   -0.3000
     23 C23        -5.4630    1.7506   51.6689 C.ar    1  ZINC000302023461    0.0500
     24 C24        -4.2437    1.5570   51.0439 C.ar    1  ZINC000302023461   -0.0500
     25 N25        -0.8037    2.7069   50.8757 N.2     1  ZINC000302023461   -0.5000
     26 H26         4.4243    2.0391   46.1253 H       1  ZINC000302023461    0.1600
     27 H27         4.1842   -0.4106   46.1343 H       1  ZINC000302023461    0.1500
     28 H28         2.9341   -1.5230   47.9386 H       1  ZINC000302023461    0.1500
     29 H29         1.9182   -0.1883   49.7395 H       1  ZINC000302023461    0.1600
     30 H30        -2.4632    1.4378   48.5883 H       1  ZINC000302023461    0.4400
     31 H31        -2.8348    4.5780   51.6816 H       1  ZINC000302023461    0.1300
     32 H32        -5.0056    4.9160   52.7820 H       1  ZINC000302023461    0.1500
     33 H33        -8.8029    2.3729   53.3073 H       1  ZINC000302023461    0.1300
     34 H34        -8.3676    2.5054   51.5835 H       1  ZINC000302023461    0.0800
     35 H35        -7.0696    0.6107   53.6057 H       1  ZINC000302023461    0.0800
     36 H36        -8.2398    0.1390   52.3459 H       1  ZINC000302023461    0.1300
     37 H37        -4.0305    0.6182   50.5545 H       1  ZINC000302023461    0.1600
@<TRIPOS>BOND
     1     1     2    2
     2     2     3    2
     3     2     4    1
     4     4     9   ar
     5     4     5   ar
     6     5     6   ar
     7     5    26    1
     8     6     7   ar
     9     6    27    1
    10     7     8   ar
    11     7    28    1
    12     8     9   ar
    13     8    29    1
    14     9    10    1
    15    10    11    1
    16    11    25    1
    17    11    12    2
    18    12    13    1
    19    13    14    1
    20    13    30    1
    21    14    15    1
    22    14    25    2
    23    15    24   ar
    24    15    16   ar
    25    16    17   ar
    26    16    31    1
    27    17    18   ar
    28    17    32    1
    29    18    23   ar
    30    18    19    1
    31    19    20    1
    32    20    21    1
    33    20    33    1
    34    20    34    1
    35    21    22    1
    36    21    35    1
    37    21    36    1
    38    22    23    1
    39    23    24   ar
    40    24    37    1
@<TRIPOS>SUBSTRUCTURE
     1 ZINC000302023461        1 TEMP              0 ****  ****    0 ROOT


##########                                Name:    ZINC000076573199
##########                DOCK_Rotatable_Bonds:                  10
##########                         Heavy_Atoms:                  24
##########                    Molecular_Weight:             333.431
##########                DOCK_Rotatable_Bonds:                  10
##########                       Formal_Charge:          -0.0200009
##########                     HBond_Acceptors:                   6
##########                        HBond_Donors:                   3
##########                         Heavy_Atoms:                  24
##########                          Grid_Score:          -28.382118
##########                     Grid_vdw_energy:          -28.247288
##########                      Grid_es_energy:           -0.134830
##########           Internal_energy_repulsive:           17.609371

@<TRIPOS>MOLECULE
ZINC000076573199
 51 51 1 0 0
SMALL
USER_CHARGES


@<TRIPOS>ATOM
      1 C1         -8.0333    2.1171   58.2123 C.3     1  ZINC000076573199   -0.1500
      2 C2         -8.0027    0.6846   58.7490 C.3     1  ZINC000076573199   -0.1200
      3 C3         -9.3652    0.3369   59.3521 C.3     1  ZINC000076573199   -0.1000
      4 H4        -10.1412    0.9212   58.8578 H       1  ZINC000076573199    0.0700
      5 C5         -9.3582    0.6598   60.8476 C.3     1  ZINC000076573199   -0.1500
      6 C6         -9.6451   -1.1542   59.1537 C.3     1  ZINC000076573199   -0.1200
      7 C7        -10.5993   -1.3411   57.9724 C.3     1  ZINC000076573199    0.1400
      8 H8        -10.5975   -2.3869   57.6657 H       1  ZINC000076573199    0.1000
      9 C9        -12.0140   -0.9346   58.3903 C.3     1  ZINC000076573199   -0.1700
     10 N10       -10.1610   -0.5033   56.8534 N.am    1  ZINC000076573199   -0.6900
     11 C11        -9.9803   -1.0482   55.6339 C.2     1  ZINC000076573199    0.5100
     12 O12       -10.1793   -2.2332   55.4633 O.2     1  ZINC000076573199   -0.5100
     13 C13        -9.5352   -0.1938   54.4927 C.2     1  ZINC000076573199    0.5100
     14 O14        -9.6697   -0.5864   53.3520 O.2     1  ZINC000076573199   -0.5000
     15 N15        -8.9841    1.0132   54.7293 N.am    1  ZINC000076573199   -0.6400
     16 C16        -8.5677    1.8125   53.6617 C.ar    1  ZINC000076573199    0.1500
     17 C17        -9.3235    2.9151   53.2820 C.ar    1  ZINC000076573199   -0.1300
     18 C18        -8.9118    3.7060   52.2265 C.ar    1  ZINC000076573199   -0.0800
     19 C19        -7.7484    3.4039   51.5455 C.ar    1  ZINC000076573199   -0.1200
     20 C20        -7.3032    4.2698   50.3953 C.3     1  ZINC000076573199   -0.1100
     21 C21        -6.9882    2.3028   51.9201 C.ar    1  ZINC000076573199    0.1600
     22 N22        -5.8100    1.9977   51.2296 N.am    1  ZINC000076573199   -0.6700
     23 C23        -4.6715    2.6606   51.5138 C.2     1  ZINC000076573199    0.5100
     24 C24        -3.4026    2.3321   50.7702 C.3     1  ZINC000076573199   -0.1700
     25 O25        -4.6681    3.5216   52.3680 O.2     1  ZINC000076573199   -0.5200
     26 C26        -7.3955    1.5095   52.9825 C.ar    1  ZINC000076573199   -0.1400
     27 H27        -8.2562    2.8057   59.0274 H       1  ZINC000076573199    0.0600
     28 H28        -7.0627    2.3648   57.7826 H       1  ZINC000076573199    0.0500
     29 H29        -8.8026    2.2013   57.4448 H       1  ZINC000076573199    0.0500
     30 H30        -7.7798   -0.0039   57.9340 H       1  ZINC000076573199    0.0600
     31 H31        -7.2334    0.6005   59.5164 H       1  ZINC000076573199    0.0600
     32 H32        -8.6398    0.0160   61.3550 H       1  ZINC000076573199    0.0600
     33 H33        -9.0771    1.7029   60.9928 H       1  ZINC000076573199    0.0600
     34 H34       -10.3526    0.4907   61.2605 H       1  ZINC000076573199    0.0500
     35 H35        -8.7097   -1.6756   58.9511 H       1  ZINC000076573199    0.0800
     36 H36       -10.1002   -1.5617   60.0564 H       1  ZINC000076573199    0.0700
     37 H37       -12.6938   -1.0678   57.5487 H       1  ZINC000076573199    0.0600
     38 H38       -12.3401   -1.5579   59.2229 H       1  ZINC000076573199    0.0700
     39 H39       -12.0159    0.1114   58.6969 H       1  ZINC000076573199    0.0600
     40 H40       -10.0009    0.4436   56.9900 H       1  ZINC000076573199    0.4100
     41 H41        -8.8767    1.3269   55.6409 H       1  ZINC000076573199    0.4200
     42 H42       -10.2336    3.1537   53.8121 H       1  ZINC000076573199    0.1400
     43 H43        -9.5011    4.5622   51.9331 H       1  ZINC000076573199    0.1300
     44 H44        -6.6619    5.0681   50.7685 H       1  ZINC000076573199    0.0700
     45 H45        -6.7494    3.6643   49.6779 H       1  ZINC000076573199    0.0600
     46 H46        -8.1764    4.7031   49.9075 H       1  ZINC000076573199    0.0700
     47 H47        -5.8127    1.3091   50.5464 H       1  ZINC000076573199    0.4100
     48 H48        -3.5503    2.5072   49.7044 H       1  ZINC000076573199    0.0900
     49 H49        -2.5938    2.9659   51.1338 H       1  ZINC000076573199    0.1000
     50 H50        -3.1459    1.2856   50.9342 H       1  ZINC000076573199    0.0900
     51 H51        -6.8061    0.6531   53.2756 H       1  ZINC000076573199    0.1400
@<TRIPOS>BOND
     1     1     2    1
     2     1    27    1
     3     1    28    1
     4     1    29    1
     5     2     3    1
     6     2    30    1
     7     2    31    1
     8     3     4    1
     9     3     5    1
    10     3     6    1
    11     5    32    1
    12     5    33    1
    13     5    34    1
    14     6     7    1
    15     6    35    1
    16     6    36    1
    17     7     8    1
    18     7     9    1
    19     7    10    1
    20     9    37    1
    21     9    38    1
    22     9    39    1
    23    10    11   am
    24    10    40    1
    25    11    12    2
    26    11    13    1
    27    13    14    2
    28    13    15   am
    29    15    16    1
    30    15    41    1
    31    16    26   ar
    32    16    17   ar
    33    17    18   ar
    34    17    42    1
    35    18    19   ar
    36    18    43    1
    37    19    20    1
    38    19    21   ar
    39    20    44    1
    40    20    45    1
    41    20    46    1
    42    21    22    1
    43    21    26   ar
    44    22    23   am
    45    22    47    1
    46    23    24    1
    47    23    25    2
    48    24    48    1
    49    24    49    1
    50    24    50    1
    51    26    51    1
@<TRIPOS>SUBSTRUCTURE
     1 ZINC000076573199        1 TEMP              0 ****  ****    0 ROOT


##########                                Name:    ZINC000328606936
##########                DOCK_Rotatable_Bonds:                   6
##########                         Heavy_Atoms:                  23
##########                    Molecular_Weight:             338.428
##########                DOCK_Rotatable_Bonds:                   6
##########                       Formal_Charge:           0.0100001
##########                     HBond_Acceptors:                   7
##########                        HBond_Donors:                   2
##########                         Heavy_Atoms:                  23
##########                          Grid_Score:          -28.352201
##########                     Grid_vdw_energy:          -26.431969
##########                      Grid_es_energy:           -1.920232
##########           Internal_energy_repulsive:            7.872399

@<TRIPOS>MOLECULE
ZINC000328606936
 45 47 1 0 0
SMALL
USER_CHARGES


@<TRIPOS>ATOM
      1 C1         -8.2016    2.3754   58.4863 C.3     1  <0>        -0.0500
      2 N2         -9.0559    1.2101   58.7511 N.4     1  <0>        -0.3500
      3 H3        -10.0154    1.5095   58.8396 H       1  <0>         0.4200
      4 C4         -8.6280    0.5627   59.9984 C.3     1  <0>        -0.0900
      5 C5         -9.8395    0.2107   60.8228 C.2     1  <0>         0.4900
      6 O6        -10.8540    0.8808   60.7324 O.co2   1  <0>        -0.6700
      7 O7         -9.8050   -0.7442   61.5800 O.co2   1  <0>        -0.6400
      8 C8         -8.9411    0.2562   57.6399 C.3     1  <0>         0.0100
      9 H9         -8.0013   -0.2917   57.7073 H       1  <0>         0.1600
     10 C10        -9.0364    0.9941   56.2871 C.3     1  <0>         0.1000
     11 N11        -9.7996    0.0739   55.4122 N.am    1  <0>        -0.6200
     12 C12        -9.5883   -0.1925   54.1081 C.2     1  <0>         0.6200
     13 O13       -10.3088   -0.9801   53.5233 O.2     1  <0>        -0.5100
     14 C14        -8.4907    0.4661   53.3939 C.2     1  <0>        -0.2800
     15 C15        -8.2801    1.8096   53.3360 C.2     1  <0>        -0.0300
     16 C16        -7.1714    2.1760   52.5953 C.2     1  <0>        -0.1200
     17 C17        -6.4978    1.1311   52.0630 C.2     1  <0>        -0.1900
     18 C18        -5.2491    1.2626   51.2113 C.3     1  <0>        -0.0500
     19 C19        -5.1353    2.7095   50.7247 C.3     1  <0>        -0.1200
     20 C20        -5.2924    3.6517   51.9217 C.3     1  <0>        -0.1200
     21 C21        -6.7466    3.6252   52.3958 C.3     1  <0>        -0.0600
     22 S22        -7.2324   -0.3521   52.4825 S.3     1  <0>         0.2000
     23 C23       -10.8479   -0.4871   56.2961 C.3     1  <0>         0.0600
     24 C24       -10.1341   -0.7222   57.6475 C.3     1  <0>         0.0800
     25 H25       -10.8055   -0.4942   58.4753 H       1  <0>         0.1000
     26 O26        -9.6750   -2.0724   57.7386 O.3     1  <0>        -0.5400
     27 H27        -7.1651    2.0520   58.3907 H       1  <0>         0.1100
     28 H28        -8.5191    2.8558   57.5608 H       1  <0>         0.1100
     29 H29        -8.2868    3.0832   59.3108 H       1  <0>         0.1600
     30 H30        -8.0717   -0.3449   59.7644 H       1  <0>         0.1200
     31 H31        -7.9908    1.2444   60.5617 H       1  <0>         0.1300
     32 H32        -9.5706    1.9368   56.4051 H       1  <0>         0.1000
     33 H33        -8.0411    1.1688   55.8786 H       1  <0>         0.1200
     34 H34        -8.9228    2.5266   53.8253 H       1  <0>         0.1500
     35 H35        -4.3723    1.0069   51.8062 H       1  <0>         0.0900
     36 H36        -5.3194    0.5931   50.3540 H       1  <0>         0.0800
     37 H37        -4.1593    2.8639   50.2646 H       1  <0>         0.0700
     38 H38        -5.9200    2.9120   49.9958 H       1  <0>         0.0700
     39 H39        -4.6391    3.3247   52.7308 H       1  <0>         0.0700
     40 H40        -5.0250    4.6658   51.6244 H       1  <0>         0.0700
     41 H41        -7.3840    4.0936   51.6458 H       1  <0>         0.0800
     42 H42        -6.8332    4.1638   53.3394 H       1  <0>         0.0800
     43 H43       -11.6650    0.2243   56.4156 H       1  <0>         0.1000
     44 H44       -11.2193   -1.4298   55.8944 H       1  <0>         0.1000
     45 H45        -8.9217   -2.2712   57.1657 H       1  <0>         0.4000
@<TRIPOS>BOND
     1     1     2    1
     2     1    27    1
     3     1    28    1
     4     1    29    1
     5     2     3    1
     6     2     4    1
     7     2     8    1
     8     4     5    1
     9     4    30    1
    10     4    31    1
    11     5     6   ar
    12     5     7   ar
    13     8     9    1
    14     8    24    1
    15     8    10    1
    16    10    11    1
    17    10    32    1
    18    10    33    1
    19    11    12   am
    20    11    23    1
    21    12    13    2
    22    12    14    1
    23    14    22    1
    24    14    15    2
    25    15    16    1
    26    15    34    1
    27    16    21    1
    28    16    17    2
    29    17    18    1
    30    17    22    1
    31    18    19    1
    32    18    35    1
    33    18    36    1
    34    19    20    1
    35    19    37    1
    36    19    38    1
    37    20    21    1
    38    20    39    1
    39    20    40    1
    40    21    41    1
    41    21    42    1
    42    23    24    1
    43    23    43    1
    44    23    44    1
    45    24    25    1
    46    24    26    1
    47    26    45    1
@<TRIPOS>SUBSTRUCTURE
     1 <0>         1 TEMP              0 ****  ****    0 ROOT


##########                                Name:    ZINC000821214121
##########                DOCK_Rotatable_Bonds:                  10
##########                         Heavy_Atoms:                  23
##########                    Molecular_Weight:             338.434
##########                DOCK_Rotatable_Bonds:                  10
##########                       Formal_Charge:          0.00999954
##########                     HBond_Acceptors:                   9
##########                        HBond_Donors:                   3
##########                         Heavy_Atoms:                  23
##########                          Grid_Score:          -28.351572
##########                     Grid_vdw_energy:          -25.540134
##########                      Grid_es_energy:           -2.811438
##########           Internal_energy_repulsive:            8.801486

@<TRIPOS>MOLECULE
ZINC000821214121
 45 46 1 0 0
SMALL
USER_CHARGES


@<TRIPOS>ATOM
      1 C1         -3.4097    3.9399   53.8496 C.3     1  ZINC000821214121   -0.1500
      2 C2         -3.3987    4.6928   55.1814 C.3     1  ZINC000821214121    0.0500
      3 N3         -3.8038    3.7831   56.2615 N.3     1  ZINC000821214121   -0.5200
      4 C4         -2.7073    3.5800   57.2177 C.3     1  ZINC000821214121    0.0600
      5 C5         -1.6563    2.6556   56.5996 C.3     1  ZINC000821214121   -0.1200
      6 C6         -0.4950    2.4767   57.5794 C.3     1  ZINC000821214121    0.0800
      7 O7         -0.9770    1.8816   58.7859 O.3     1  ZINC000821214121   -0.5700
      8 C8         -5.0096    4.2760   56.9403 C.3     1  ZINC000821214121    0.0400
      9 C9         -6.2224    3.5796   56.3789 C.2     1  ZINC000821214121    0.5000
     10 O10        -7.1929    4.2264   56.0451 O.2     1  ZINC000821214121   -0.4800
     11 N11        -6.2289    2.2383   56.2476 N.am    1  ZINC000821214121   -0.6300
     12 C12        -7.3499    1.5945   55.7269 C.2     1  ZINC000821214121    0.0800
     13 C13        -8.3035    0.9547   56.4615 C.2     1  ZINC000821214121   -0.1000
     14 C14        -8.2584    0.8668   57.9408 C.2     1  ZINC000821214121    0.2900
     15 N15        -7.4602    0.0936   58.6545 N.2     1  ZINC000821214121   -0.3300
     16 N16        -7.7768    0.3502   59.9987 N.pl3   1  ZINC000821214121   -0.2900
     17 N17        -8.7157    1.2336   60.0061 N.2     1  ZINC000821214121    0.0200
     18 N18        -9.0145    1.5600   58.7990 N.2     1  ZINC000821214121   -0.2900
     19 C19        -9.3253    0.3903   55.6982 C.2     1  ZINC000821214121   -0.0500
     20 C20       -10.4765   -0.3605   56.3163 C.3     1  ZINC000821214121   -0.1000
     21 C21        -9.2091    0.5636   54.3860 C.2     1  ZINC000821214121   -0.2400
     22 C22       -10.1844    0.0483   53.3591 C.3     1  ZINC000821214121   -0.0800
     23 S23        -7.7590    1.4868   54.0200 S.3     1  ZINC000821214121    0.2600
     24 H24        -2.7885    3.0478   53.9313 H       1  ZINC000821214121    0.0700
     25 H25        -4.4315    3.6500   53.6045 H       1  ZINC000821214121    0.0500
     26 H26        -3.0168    4.5854   53.0640 H       1  ZINC000821214121    0.0600
     27 H27        -2.3941    5.0669   55.3790 H       1  ZINC000821214121    0.0900
     28 H28        -4.0948    5.5300   55.1313 H       1  ZINC000821214121    0.0400
     29 H29        -2.2509    4.5406   57.4566 H       1  ZINC000821214121    0.0400
     30 H30        -3.0988    3.1270   58.1285 H       1  ZINC000821214121    0.0800
     31 H31        -2.1054    1.6854   56.3873 H       1  ZINC000821214121    0.0800
     32 H32        -1.2858    3.0949   55.6734 H       1  ZINC000821214121    0.0700
     33 H33         0.2611    1.8310   57.1327 H       1  ZINC000821214121    0.0400
     34 H34        -0.0560    3.4487   57.8039 H       1  ZINC000821214121    0.0500
     35 H35        -1.4036    1.0233   58.6581 H       1  ZINC000821214121    0.3800
     36 H36        -4.9349    4.0710   58.0083 H       1  ZINC000821214121    0.0700
     37 H37        -5.1020    5.3505   56.7823 H       1  ZINC000821214121    0.1200
     38 H38        -5.4534    1.7209   56.5157 H       1  ZINC000821214121    0.4200
     39 H39        -7.3662   -0.0606   60.7755 H       1  ZINC000821214121    0.4700
     40 H40       -11.2883    0.3338   56.5333 H       1  ZINC000821214121    0.0700
     41 H41       -10.8272   -1.1239   55.6218 H       1  ZINC000821214121    0.0700
     42 H42       -10.1468   -0.8343   57.2408 H       1  ZINC000821214121    0.0900
     43 H43       -10.9538    0.7991   53.1799 H       1  ZINC000821214121    0.0700
     44 H44        -9.6561   -0.1599   52.4287 H       1  ZINC000821214121    0.0700
     45 H45       -10.6484   -0.8671   53.7262 H       1  ZINC000821214121    0.0800
@<TRIPOS>BOND
     1     1     2    1
     2     1    24    1
     3     1    25    1
     4     1    26    1
     5     2     3    1
     6     2    27    1
     7     2    28    1
     8     3     4    1
     9     3     8    1
    10     4     5    1
    11     4    29    1
    12     4    30    1
    13     5     6    1
    14     5    31    1
    15     5    32    1
    16     6     7    1
    17     6    33    1
    18     6    34    1
    19     7    35    1
    20     8     9    1
    21     8    36    1
    22     8    37    1
    23     9    10    2
    24     9    11   am
    25    11    12    1
    26    11    38    1
    27    12    23    1
    28    12    13    2
    29    13    14    1
    30    13    19    1
    31    14    18    1
    32    14    15    2
    33    15    16    1
    34    16    17    1
    35    16    39    1
    36    17    18    2
    37    19    20    1
    38    19    21    2
    39    20    40    1
    40    20    41    1
    41    20    42    1
    42    21    22    1
    43    21    23    1
    44    22    43    1
    45    22    44    1
    46    22    45    1
@<TRIPOS>SUBSTRUCTURE
     1 ZINC000821214121        1 TEMP              0 ****  ****    0 ROOT


##########                                Name:    ZINC000245764166
##########                DOCK_Rotatable_Bonds:                   8
##########                         Heavy_Atoms:                  26
##########                    Molecular_Weight:             359.512
##########                DOCK_Rotatable_Bonds:                   8
##########                       Formal_Charge:          -0.0100008
##########                     HBond_Acceptors:                   5
##########                        HBond_Donors:                   2
##########                         Heavy_Atoms:                  26
##########                          Grid_Score:          -28.320120
##########                     Grid_vdw_energy:          -27.941397
##########                      Grid_es_energy:           -0.378722
##########           Internal_energy_repulsive:           27.030087

@<TRIPOS>MOLECULE
ZINC000245764166
 59 61 1 0 0
SMALL
USER_CHARGES


@<TRIPOS>ATOM
      1 C1        -10.4056    1.4537   64.3085 C.3     1  ZINC000245764166    0.0200
      2 N2         -9.3576    0.7783   63.5317 N.3     1  ZINC000245764166   -0.5300
      3 C3         -8.5607   -0.1125   64.3858 C.3     1  ZINC000245764166    0.0600
      4 C4         -7.9479    0.6840   65.5088 C.ar    1  ZINC000245764166   -0.0800
      5 C5         -6.7054    1.2672   65.3446 C.ar    1  ZINC000245764166   -0.1000
      6 C6         -6.1432    1.9978   66.3747 C.ar    1  ZINC000245764166   -0.1200
      7 C7         -6.8238    2.1458   67.5687 C.ar    1  ZINC000245764166   -0.1200
      8 C8         -8.0668    1.5634   67.7327 C.ar    1  ZINC000245764166   -0.1200
      9 C9         -8.6308    0.8363   66.7010 C.ar    1  ZINC000245764166   -0.1200
     10 C10        -9.9338    0.0435   62.3977 C.3     1  ZINC000245764166    0.0500
     11 C11        -9.4595    0.6747   61.0871 C.3     1  ZINC000245764166    0.1900
     12 C12        -8.9718    2.1000   61.3547 C.3     1  ZINC000245764166   -0.1600
     13 C13        -8.3136   -0.1559   60.5063 C.3     1  ZINC000245764166   -0.1500
     14 N14       -10.5700    0.7099   60.1322 N.am    1  ZINC000245764166   -0.7400
     15 C15       -11.2673   -0.4128   59.8678 C.2     1  ZINC000245764166    0.7000
     16 O16       -10.9738   -1.4551   60.4208 O.2     1  ZINC000245764166   -0.5800
     17 N17       -12.2899   -0.3801   58.9905 N.am    1  ZINC000245764166   -0.7500
     18 C18       -13.0467   -1.6009   58.7019 C.3     1  ZINC000245764166    0.1800
     19 H19       -12.7860   -2.3658   59.4333 H       1  ZINC000245764166    0.0900
     20 C20       -12.6849   -2.0977   57.3044 C.3     1  ZINC000245764166   -0.1300
     21 C21       -13.4377   -3.4065   57.0406 C.3     1  ZINC000245764166   -0.1100
     22 C22       -14.9371   -3.1098   57.0523 C.3     1  ZINC000245764166   -0.1100
     23 C23       -15.3728   -2.5274   58.3763 C.3     1  ZINC000245764166    0.0900
     24 H24       -16.4168   -2.2224   58.3038 H       1  ZINC000245764166    0.0600
     25 O25       -15.2315   -3.4463   59.4681 O.3     1  ZINC000245764166   -0.3600
     26 C26       -15.3286   -2.6583   60.6711 C.3     1  ZINC000245764166    0.0500
     27 C27       -14.8835   -1.2246   60.3177 C.3     1  ZINC000245764166   -0.1500
     28 C28       -14.5438   -1.3002   58.7993 C.3     1  ZINC000245764166   -0.1300
     29 H29       -14.8304   -0.3972   58.2602 H       1  ZINC000245764166    0.1000
     30 H30        -9.9501    2.0040   65.1318 H       1  ZINC000245764166    0.0800
     31 H31       -10.9464    2.1464   63.6637 H       1  ZINC000245764166    0.0700
     32 H32       -11.0981    0.7119   64.7066 H       1  ZINC000245764166    0.0200
     33 H33        -9.2034   -0.8894   64.8001 H       1  ZINC000245764166    0.0400
     34 H34        -7.7701   -0.5727   63.7932 H       1  ZINC000245764166    0.1100
     35 H35        -6.1737    1.1516   64.4117 H       1  ZINC000245764166    0.1200
     36 H36        -5.1721    2.4529   66.2467 H       1  ZINC000245764166    0.1200
     37 H37        -6.3843    2.7160   68.3737 H       1  ZINC000245764166    0.1200
     38 H38        -8.5984    1.6787   68.6656 H       1  ZINC000245764166    0.1200
     39 H39        -9.6019    0.3814   66.8290 H       1  ZINC000245764166    0.1200
     40 H40        -9.6116   -0.9970   62.4373 H       1  ZINC000245764166    0.0400
     41 H41       -11.0216    0.0893   62.4501 H       1  ZINC000245764166    0.1000
     42 H42        -8.1456    2.0738   62.0652 H       1  ZINC000245764166    0.0700
     43 H43        -8.6339    2.5497   60.4210 H       1  ZINC000245764166    0.0800
     44 H44        -9.7883    2.6918   61.7685 H       1  ZINC000245764166    0.0500
     45 H45        -8.6906   -1.1323   60.2016 H       1  ZINC000245764166    0.0600
     46 H46        -7.8945    0.3579   59.6412 H       1  ZINC000245764166    0.0800
     47 H47        -7.5391   -0.2853   61.2623 H       1  ZINC000245764166    0.0600
     48 H48       -10.8034    1.5412   59.6901 H       1  ZINC000245764166    0.3900
     49 H49       -12.5248    0.4516   58.5503 H       1  ZINC000245764166    0.3900
     50 H50       -12.9762   -1.3525   56.5644 H       1  ZINC000245764166    0.0600
     51 H51       -11.6111   -2.2752   57.2458 H       1  ZINC000245764166    0.0700
     52 H52       -13.1500   -3.8060   56.0681 H       1  ZINC000245764166    0.0700
     53 H53       -13.2004   -4.1303   57.8203 H       1  ZINC000245764166    0.0700
     54 H54       -15.1666   -2.4000   56.2577 H       1  ZINC000245764166    0.0800
     55 H55       -15.4851   -4.0347   56.8720 H       1  ZINC000245764166    0.0700
     56 H56       -16.3591   -2.6495   61.0260 H       1  ZINC000245764166    0.0600
     57 H57       -14.6738   -3.0712   61.4384 H       1  ZINC000245764166    0.0800
     58 H58       -15.6950   -0.5182   60.4929 H       1  ZINC000245764166    0.0800
     59 H59       -14.0012   -0.9453   60.8935 H       1  ZINC000245764166    0.0800
@<TRIPOS>BOND
     1     1     2    1
     2     1    30    1
     3     1    31    1
     4     1    32    1
     5     2     3    1
     6     2    10    1
     7     3     4    1
     8     3    33    1
     9     3    34    1
    10     4     9   ar
    11     4     5   ar
    12     5     6   ar
    13     5    35    1
    14     6     7   ar
    15     6    36    1
    16     7     8   ar
    17     7    37    1
    18     8     9   ar
    19     8    38    1
    20     9    39    1
    21    10    11    1
    22    10    40    1
    23    10    41    1
    24    11    12    1
    25    11    13    1
    26    11    14    1
    27    12    42    1
    28    12    43    1
    29    12    44    1
    30    13    45    1
    31    13    46    1
    32    13    47    1
    33    14    15   am
    34    14    48    1
    35    15    16    2
    36    15    17   am
    37    17    18    1
    38    17    49    1
    39    18    19    1
    40    18    28    1
    41    18    20    1
    42    20    21    1
    43    20    50    1
    44    20    51    1
    45    21    22    1
    46    21    52    1
    47    21    53    1
    48    22    23    1
    49    22    54    1
    50    22    55    1
    51    23    24    1
    52    23    28    1
    53    23    25    1
    54    25    26    1
    55    26    27    1
    56    26    56    1
    57    26    57    1
    58    27    28    1
    59    27    58    1
    60    27    59    1
    61    28    29    1
@<TRIPOS>SUBSTRUCTURE
     1 ZINC000245764166        1 TEMP              0 ****  ****    0 ROOT


##########                                Name:    ZINC000675319328
##########                DOCK_Rotatable_Bonds:                   7
##########                         Heavy_Atoms:                  26
##########                    Molecular_Weight:             363.475
##########                DOCK_Rotatable_Bonds:                   7
##########                       Formal_Charge:          -0.0200007
##########                     HBond_Acceptors:                   6
##########                        HBond_Donors:                   1
##########                         Heavy_Atoms:                  26
##########                          Grid_Score:          -28.278103
##########                     Grid_vdw_energy:          -27.634960
##########                      Grid_es_energy:           -0.643142
##########           Internal_energy_repulsive:           13.937271

@<TRIPOS>MOLECULE
ZINC000675319328
 56 58 1 0 0
SMALL
USER_CHARGES


@<TRIPOS>ATOM
      1 C1        -12.8325    1.6247   61.2216 C.3     1  ZINC000675319328   -0.1600
      2 C2        -11.6282    0.8008   61.6818 C.3     1  ZINC000675319328    0.1600
      3 H3        -11.9637    0.0112   62.3542 H       1  ZINC000675319328    0.0900
      4 C4        -10.6391    1.7090   62.4152 C.3     1  ZINC000675319328   -0.1200
      5 C5         -9.4168    0.8932   62.8409 C.3     1  ZINC000675319328   -0.1200
      6 H6         -8.8908    0.5025   61.9698 H       1  ZINC000675319328    0.0800
      7 C7         -8.4652    1.7441   63.7254 C.3     1  ZINC000675319328   -0.1500
      8 C8         -7.7925    0.6403   64.5799 C.3     1  ZINC000675319328    0.0500
      9 O9         -8.8260   -0.3269   64.8242 O.3     1  ZINC000675319328   -0.3900
     10 C10        -9.8243   -0.2499   63.7951 C.3     1  ZINC000675319328    0.0500
     11 N11       -10.9712    0.2035   60.5165 N.am    1  ZINC000675319328   -0.7400
     12 C12       -11.3925   -0.9851   60.0410 C.2     1  ZINC000675319328    0.7000
     13 O13       -12.3180   -1.5616   60.5791 O.2     1  ZINC000675319328   -0.5900
     14 N14       -10.7880   -1.5346   58.9691 N.am    1  ZINC000675319328   -0.6200
     15 C15       -11.2719   -2.8374   58.4715 C.3     1  ZINC000675319328    0.1300
     16 C16       -11.3293   -2.8623   56.9348 C.3     1  ZINC000675319328   -0.1300
     17 C17       -11.8426   -1.5341   56.4240 C.3     1  ZINC000675319328    0.0700
     18 N18       -10.7067   -0.6550   56.1517 N.3     1  ZINC000675319328   -0.5500
     19 C19       -10.9681    0.1965   54.9836 C.3     1  ZINC000675319328    0.1000
     20 C20        -9.6969    0.3685   54.1927 C.ar    1  ZINC000675319328   -0.0900
     21 C21        -9.2155   -0.6746   53.4236 C.ar    1  ZINC000675319328   -0.0900
     22 C22        -8.0499   -0.5179   52.6979 C.ar    1  ZINC000675319328   -0.1500
     23 C23        -7.3645    0.6843   52.7409 C.ar    1  ZINC000675319328    0.1000
     24 F24        -6.2251    0.8386   52.0314 F       1  ZINC000675319328   -0.1400
     25 C25        -7.8478    1.7284   53.5111 C.ar    1  ZINC000675319328   -0.1500
     26 C26        -9.0163    1.5711   54.2322 C.ar    1  ZINC000675319328   -0.0700
     27 C27       -10.2308    0.1113   57.2413 C.3     1  ZINC000675319328    0.0500
     28 C28        -9.6919   -0.8214   58.3454 C.3     1  ZINC000675319328    0.1100
     29 H29       -13.5372    0.9777   60.6992 H       1  ZINC000675319328    0.0600
     30 H30       -13.3213    2.0691   62.0886 H       1  ZINC000675319328    0.0700
     31 H31       -12.4970    2.4143   60.5493 H       1  ZINC000675319328    0.0500
     32 H32       -10.3251    2.5148   61.7517 H       1  ZINC000675319328    0.0700
     33 H33       -11.1195    2.1314   63.2977 H       1  ZINC000675319328    0.0900
     34 H34        -7.7310    2.2723   63.1173 H       1  ZINC000675319328    0.0800
     35 H35        -9.0263    2.4380   64.3513 H       1  ZINC000675319328    0.0800
     36 H36        -6.9700    0.1842   64.0291 H       1  ZINC000675319328    0.0600
     37 H37        -7.4337    1.0566   65.5212 H       1  ZINC000675319328    0.0900
     38 H38       -10.7957   -0.0298   64.2380 H       1  ZINC000675319328    0.0700
     39 H39        -9.8695   -1.1941   63.2523 H       1  ZINC000675319328    0.0700
     40 H40       -10.2330    0.6634   60.0873 H       1  ZINC000675319328    0.3900
     41 H41       -10.5997   -3.6231   58.8162 H       1  ZINC000675319328    0.0600
     42 H42       -12.2698   -3.0230   58.8690 H       1  ZINC000675319328    0.0900
     43 H43       -10.3305   -3.0424   56.5372 H       1  ZINC000675319328    0.0800
     44 H44       -11.9980   -3.6591   56.6095 H       1  ZINC000675319328    0.0800
     45 H45       -12.4100   -1.6912   55.5067 H       1  ZINC000675319328    0.0700
     46 H46       -12.4846   -1.0775   57.1772 H       1  ZINC000675319328    0.0400
     47 H47       -11.7264   -0.2711   54.3555 H       1  ZINC000675319328    0.0900
     48 H48       -11.3234    1.1716   55.3169 H       1  ZINC000675319328    0.0400
     49 H49        -9.7504   -1.6122   53.3901 H       1  ZINC000675319328    0.1300
     50 H50        -7.6737   -1.3332   52.0977 H       1  ZINC000675319328    0.1400
     51 H51        -7.3138    2.6665   53.5457 H       1  ZINC000675319328    0.1400
     52 H52        -9.3937    2.3854   54.8328 H       1  ZINC000675319328    0.1300
     53 H53        -9.4314    0.7687   56.8993 H       1  ZINC000675319328    0.0900
     54 H54       -11.0454    0.7136   57.6432 H       1  ZINC000675319328    0.0300
     55 H55        -9.1722   -0.2292   59.0987 H       1  ZINC000675319328    0.0700
     56 H56        -8.9985   -1.5392   57.9075 H       1  ZINC000675319328    0.0900
@<TRIPOS>BOND
     1     1     2    1
     2     1    29    1
     3     1    30    1
     4     1    31    1
     5     2     3    1
     6     2     4    1
     7     2    11    1
     8     4     5    1
     9     4    32    1
    10     4    33    1
    11     5     6    1
    12     5    10    1
    13     5     7    1
    14     7     8    1
    15     7    34    1
    16     7    35    1
    17     8     9    1
    18     8    36    1
    19     8    37    1
    20     9    10    1
    21    10    38    1
    22    10    39    1
    23    11    12   am
    24    11    40    1
    25    12    13    2
    26    12    14   am
    27    14    28    1
    28    14    15    1
    29    15    16    1
    30    15    41    1
    31    15    42    1
    32    16    17    1
    33    16    43    1
    34    16    44    1
    35    17    18    1
    36    17    45    1
    37    17    46    1
    38    18    19    1
    39    18    27    1
    40    19    20    1
    41    19    47    1
    42    19    48    1
    43    20    26   ar
    44    20    21   ar
    45    21    22   ar
    46    21    49    1
    47    22    23   ar
    48    22    50    1
    49    23    24    1
    50    23    25   ar
    51    25    26   ar
    52    25    51    1
    53    26    52    1
    54    27    28    1
    55    27    53    1
    56    27    54    1
    57    28    55    1
    58    28    56    1
@<TRIPOS>SUBSTRUCTURE
     1 ZINC000675319328        1 TEMP              0 ****  ****    0 ROOT


##########                                Name:    ZINC000952280524
##########                DOCK_Rotatable_Bonds:                   9
##########                         Heavy_Atoms:                  25
##########                    Molecular_Weight:             348.486
##########                DOCK_Rotatable_Bonds:                   9
##########                       Formal_Charge:          -0.0100004
##########                     HBond_Acceptors:                   5
##########                        HBond_Donors:                   1
##########                         Heavy_Atoms:                  25
##########                          Grid_Score:          -28.272230
##########                     Grid_vdw_energy:          -27.607445
##########                      Grid_es_energy:           -0.664785
##########           Internal_energy_repulsive:           22.091028

@<TRIPOS>MOLECULE
ZINC000952280524
 57 59 1 0 0
SMALL
USER_CHARGES


@<TRIPOS>ATOM
      1 C1        -14.7926   -2.9420   60.9876 C.3     1  ZINC000952280524   -0.1800
      2 C2        -15.2899   -2.3236   59.6795 C.3     1  ZINC000952280524    0.1400
      3 C3        -16.7948   -2.5629   59.5419 C.3     1  ZINC000952280524   -0.1900
      4 O4        -15.0299   -0.9185   59.6877 O.3     1  ZINC000952280524   -0.5500
      5 C5        -14.5608   -2.9704   58.5001 C.3     1  ZINC000952280524   -0.1200
      6 C6        -14.5301   -2.0087   57.3401 C.2     1  ZINC000952280524    0.5300
      7 O7        -15.5534   -1.4747   56.9679 O.2     1  ZINC000952280524   -0.5100
      8 N8        -13.3654   -1.7422   56.7164 N.am    1  ZINC000952280524   -0.6300
      9 C9        -12.0570   -2.3167   57.0624 C.3     1  ZINC000952280524    0.1000
     10 C10       -11.0185   -1.7044   56.0991 C.3     1  ZINC000952280524   -0.1300
     11 C11       -11.7065   -0.3938   55.6337 C.3     1  ZINC000952280524   -0.1000
     12 H12       -11.5613    0.4037   56.3624 H       1  ZINC000952280524    0.0900
     13 C13       -11.2017    0.0302   54.2531 C.3     1  ZINC000952280524   -0.0700
     14 C14       -11.8337    1.3699   53.8685 C.3     1  ZINC000952280524   -0.1300
     15 C15       -11.3531    1.7743   52.4712 C.3     1  ZINC000952280524    0.1100
     16 N16        -9.8838    1.7744   52.4582 N.am    1  ZINC000952280524   -0.6100
     17 C17        -9.2008    2.8630   52.0521 C.2     1  ZINC000952280524    0.5500
     18 O18        -9.8005    3.8577   51.6918 O.2     1  ZINC000952280524   -0.5500
     19 C19        -7.7298    2.8478   52.0447 C.2     1  ZINC000952280524   -0.2200
     20 C20        -7.0681    3.0819   50.9150 C.2     1  ZINC000952280524   -0.0300
     21 C21        -5.5612    3.0681   50.9077 C.3     1  ZINC000952280524   -0.1500
     22 C22        -4.8579    2.1855   51.9408 C.3     1  ZINC000952280524   -0.1700
     23 C23        -4.8687    1.7771   50.4663 C.3     1  ZINC000952280524   -0.1600
     24 C24        -9.1734    0.5654   52.8969 C.3     1  ZINC000952280524    0.1000
     25 C25        -9.6785    0.1745   54.2893 C.3     1  ZINC000952280524   -0.1300
     26 C26       -13.1935   -0.8313   55.5701 C.3     1  ZINC000952280524    0.1100
     27 H27       -15.0688   -3.9960   61.0193 H       1  ZINC000952280524    0.0700
     28 H28       -13.7081   -2.8488   61.0443 H       1  ZINC000952280524    0.0600
     29 H29       -15.2468   -2.4220   61.8310 H       1  ZINC000952280524    0.0600
     30 H30       -17.3143   -2.1021   60.3821 H       1  ZINC000952280524    0.0600
     31 H31       -17.1491   -2.1224   58.6100 H       1  ZINC000952280524    0.0800
     32 H32       -16.9932   -3.6347   59.5356 H       1  ZINC000952280524    0.0600
     33 H33       -15.3329   -0.4578   58.8934 H       1  ZINC000952280524    0.3700
     34 H34       -13.5408   -3.2170   58.7946 H       1  ZINC000952280524    0.1000
     35 H35       -15.0836   -3.8799   58.2042 H       1  ZINC000952280524    0.1000
     36 H36       -11.8020   -2.0643   58.0917 H       1  ZINC000952280524    0.0700
     37 H37       -12.0834   -3.3994   56.9396 H       1  ZINC000952280524    0.0700
     38 H38       -10.0879   -1.4864   56.6231 H       1  ZINC000952280524    0.0800
     39 H39       -10.8397   -2.3675   55.2527 H       1  ZINC000952280524    0.0800
     40 H40       -11.4775   -0.7256   53.5177 H       1  ZINC000952280524    0.0800
     41 H41       -12.9194    1.2725   53.8657 H       1  ZINC000952280524    0.0800
     42 H42       -11.5382    2.1320   54.5896 H       1  ZINC000952280524    0.0700
     43 H43       -11.7249    1.0606   51.7361 H       1  ZINC000952280524    0.0700
     44 H44       -11.7206    2.7725   52.2330 H       1  ZINC000952280524    0.0900
     45 H45        -7.1873    2.6466   52.9565 H       1  ZINC000952280524    0.1300
     46 H46        -7.6108    3.2818   50.0029 H       1  ZINC000952280524    0.1300
     47 H47        -5.0837    4.0114   50.6427 H       1  ZINC000952280524    0.1200
     48 H48        -3.9174    2.5481   52.3557 H       1  ZINC000952280524    0.1000
     49 H49        -5.4851    1.6148   52.6256 H       1  ZINC000952280524    0.1000
     50 H50        -5.5030    0.9379   50.1811 H       1  ZINC000952280524    0.1000
     51 H51        -3.9354    1.8712   49.9111 H       1  ZINC000952280524    0.1000
     52 H52        -9.3676   -0.2469   52.1964 H       1  ZINC000952280524    0.0700
     53 H53        -8.1029    0.7659   52.9395 H       1  ZINC000952280524    0.0900
     54 H54        -9.4033    0.9478   55.0065 H       1  ZINC000952280524    0.0700
     55 H55        -9.2302   -0.7736   54.5860 H       1  ZINC000952280524    0.0800
     56 H56       -13.3966   -1.3496   54.6330 H       1  ZINC000952280524    0.0700
     57 H57       -13.8482    0.0337   55.6757 H       1  ZINC000952280524    0.0800
@<TRIPOS>BOND
     1     1     2    1
     2     1    27    1
     3     1    28    1
     4     1    29    1
     5     2     3    1
     6     2     4    1
     7     2     5    1
     8     3    30    1
     9     3    31    1
    10     3    32    1
    11     4    33    1
    12     5     6    1
    13     5    34    1
    14     5    35    1
    15     6     7    2
    16     6     8   am
    17     8    26    1
    18     8     9    1
    19     9    10    1
    20     9    36    1
    21     9    37    1
    22    10    11    1
    23    10    38    1
    24    10    39    1
    25    11    12    1
    26    11    13    1
    27    11    26    1
    28    13    25    1
    29    13    14    1
    30    13    40    1
    31    14    15    1
    32    14    41    1
    33    14    42    1
    34    15    16    1
    35    15    43    1
    36    15    44    1
    37    16    17   am
    38    16    24    1
    39    17    18    2
    40    17    19    1
    41    19    20    2
    42    19    45    1
    43    20    21    1
    44    20    46    1
    45    21    23    1
    46    21    22    1
    47    21    47    1
    48    22    23    1
    49    22    48    1
    50    22    49    1
    51    23    50    1
    52    23    51    1
    53    24    25    1
    54    24    52    1
    55    24    53    1
    56    25    54    1
    57    25    55    1
    58    26    56    1
    59    26    57    1
@<TRIPOS>SUBSTRUCTURE
     1 ZINC000952280524        1 TEMP              0 ****  ****    0 ROOT


##########                                Name:    ZINC000163855860
##########                DOCK_Rotatable_Bonds:                   6
##########                         Heavy_Atoms:                  28
##########                    Molecular_Weight:             398.483
##########                DOCK_Rotatable_Bonds:                   6
##########                       Formal_Charge:          -0.0100004
##########                     HBond_Acceptors:                   7
##########                        HBond_Donors:                   1
##########                         Heavy_Atoms:                  28
##########                          Grid_Score:          -28.268339
##########                     Grid_vdw_energy:          -24.470179
##########                      Grid_es_energy:           -3.798161
##########           Internal_energy_repulsive:           14.146521

@<TRIPOS>MOLECULE
ZINC000163855860
 50 53 1 0 0
SMALL
USER_CHARGES


@<TRIPOS>ATOM
      1 C1         -9.4057    1.7155   58.9592 C.3     1  ZINC000163855860   -0.1300
      2 C2        -10.6560    2.1188   59.6975 C.ar    1  ZINC000163855860   -0.0600
      3 C3        -10.5913    2.4618   61.0389 C.ar    1  ZINC000163855860    0.1400
      4 N4         -9.3634    2.4345   61.7096 N.am    1  ZINC000163855860   -0.6700
      5 C5         -9.1219    1.4849   62.6352 C.2     1  ZINC000163855860    0.5100
      6 O6         -9.9689    0.6540   62.8866 O.2     1  ZINC000163855860   -0.5100
      7 C7         -7.7997    1.4556   63.3574 C.3     1  ZINC000163855860   -0.1300
      8 C8         -8.0419    1.5093   64.8672 C.3     1  ZINC000163855860   -0.1100
      9 H9         -8.8145    2.2382   65.1118 H       1  ZINC000163855860    0.1100
     10 C10        -8.4099    0.1118   65.4158 C.3     1  ZINC000163855860    0.0600
     11 O11        -7.8037    0.0704   66.7415 O.3     1  ZINC000163855860   -0.3500
     12 C12        -6.6931    0.8211   66.7594 C.2     1  ZINC000163855860    0.4800
     13 O13        -5.7959    0.7153   67.5615 O.2     1  ZINC000163855860   -0.4500
     14 C14        -6.7318    1.8210   65.6240 C.3     1  ZINC000163855860   -0.1800
     15 C15       -11.7451    2.8385   61.7163 C.ar    1  ZINC000163855860   -0.1100
     16 C16       -12.9600    2.8680   61.0581 C.ar    1  ZINC000163855860   -0.1100
     17 C17       -13.0358    2.5236   59.7236 C.ar    1  ZINC000163855860   -0.1000
     18 C18       -11.8830    2.1435   59.0345 C.ar    1  ZINC000163855860   -0.1100
     19 C19       -11.9613    1.7745   57.6048 C.2     1  ZINC000163855860    0.5700
     20 O20       -11.8457    2.6301   56.7492 O.2     1  ZINC000163855860   -0.5300
     21 N21       -12.1607    0.4897   57.2503 N.am    1  ZINC000163855860   -0.6100
     22 C22       -12.2417    0.1013   55.8342 C.3     1  ZINC000163855860    0.1200
     23 C23       -11.0483   -0.8128   55.5152 C.3     1  ZINC000163855860   -0.0600
     24 C24       -10.9085   -1.8444   56.6145 C.2     1  ZINC000163855860   -0.1700
     25 C25       -11.4549   -1.7475   57.8413 C.2     1  ZINC000163855860   -0.1300
     26 C26       -11.1671   -2.8264   58.6712 C.2     1  ZINC000163855860   -0.1200
     27 C27       -10.4113   -3.7793   58.1347 C.2     1  ZINC000163855860   -0.2100
     28 S28       -10.0026   -3.3465   56.4815 S.3     1  ZINC000163855860    0.1100
     29 C29       -12.3090   -0.5594   58.2689 C.3     1  ZINC000163855860    0.1700
     30 H30        -9.3157    0.6292   58.9634 H       1  ZINC000163855860    0.0700
     31 H31        -9.4604    2.0716   57.9305 H       1  ZINC000163855860    0.0900
     32 H32        -8.5367    2.1540   59.4498 H       1  ZINC000163855860    0.0700
     33 H33        -8.6859    3.0990   61.5085 H       1  ZINC000163855860    0.4100
     34 H34        -7.2012    2.3148   63.0547 H       1  ZINC000163855860    0.1100
     35 H35        -7.2691    0.5370   63.1071 H       1  ZINC000163855860    0.1100
     36 H36        -7.9907   -0.6688   64.7810 H       1  ZINC000163855860    0.0800
     37 H37        -9.4921    0.0043   65.4887 H       1  ZINC000163855860    0.1200
     38 H38        -6.7523    2.8383   66.0150 H       1  ZINC000163855860    0.1200
     39 H39        -5.8724    1.6832   64.9677 H       1  ZINC000163855860    0.1200
     40 H40       -11.6919    3.1094   62.7604 H       1  ZINC000163855860    0.1500
     41 H41       -13.8530    3.1619   61.5895 H       1  ZINC000163855860    0.1300
     42 H42       -13.9871    2.5479   59.2128 H       1  ZINC000163855860    0.1300
     43 H43       -13.1739   -0.4339   55.6541 H       1  ZINC000163855860    0.0800
     44 H44       -12.2011    0.9923   55.2074 H       1  ZINC000163855860    0.1000
     45 H45       -10.1368   -0.2180   55.4555 H       1  ZINC000163855860    0.0900
     46 H46       -11.2186   -1.3155   54.5632 H       1  ZINC000163855860    0.0900
     47 H47       -11.5337   -2.8858   59.6853 H       1  ZINC000163855860    0.1400
     48 H48       -10.0971   -4.6819   58.6379 H       1  ZINC000163855860    0.1700
     49 H49       -11.9669   -0.1873   59.2346 H       1  ZINC000163855860    0.1000
     50 H50       -13.3541   -0.8611   58.3388 H       1  ZINC000163855860    0.0900
@<TRIPOS>BOND
     1     1     2    1
     2     1    30    1
     3     1    31    1
     4     1    32    1
     5     2    18   ar
     6     2     3   ar
     7     3     4    1
     8     3    15   ar
     9     4     5   am
    10     4    33    1
    11     5     6    2
    12     5     7    1
    13     7     8    1
    14     7    34    1
    15     7    35    1
    16     8     9    1
    17     8    14    1
    18     8    10    1
    19    10    11    1
    20    10    36    1
    21    10    37    1
    22    11    12    1
    23    12    13    2
    24    12    14    1
    25    14    38    1
    26    14    39    1
    27    15    16   ar
    28    15    40    1
    29    16    17   ar
    30    16    41    1
    31    17    18   ar
    32    17    42    1
    33    18    19    1
    34    19    20    2
    35    19    21   am
    36    21    29    1
    37    21    22    1
    38    22    23    1
    39    22    43    1
    40    22    44    1
    41    23    24    1
    42    23    45    1
    43    23    46    1
    44    24    28    1
    45    24    25    2
    46    25    26    1
    47    25    29    1
    48    26    27    2
    49    26    47    1
    50    27    28    1
    51    27    48    1
    52    29    49    1
    53    29    50    1
@<TRIPOS>SUBSTRUCTURE
     1 ZINC000163855860        1 TEMP              0 ****  ****    0 ROOT


##########                                Name:    ZINC001060733018
##########                DOCK_Rotatable_Bonds:                   7
##########                         Heavy_Atoms:                  24
##########                    Molecular_Weight:             342.429
##########                DOCK_Rotatable_Bonds:                   7
##########                       Formal_Charge:           0.0200001
##########                     HBond_Acceptors:                   6
##########                        HBond_Donors:                   2
##########                         Heavy_Atoms:                  24
##########                          Grid_Score:          -28.247540
##########                     Grid_vdw_energy:          -24.244173
##########                      Grid_es_energy:           -4.003367
##########           Internal_energy_repulsive:            8.131758

@<TRIPOS>MOLECULE
ZINC001060733018
 52 54 1 0 0
SMALL
USER_CHARGES


@<TRIPOS>ATOM
      1 O1         -5.6680    1.1563   66.3320 O.2     1  ZINC001060733018   -0.5000
      2 C2         -5.3655    2.0491   65.5690 C.2     1  ZINC001060733018    0.4700
      3 N3         -6.3170    2.8690   65.0801 N.am    1  ZINC001060733018   -0.7100
      4 C4         -7.7171    2.6791   65.4670 C.3     1  ZINC001060733018    0.1200
      5 C5         -8.3710    1.6602   64.5316 C.3     1  ZINC001060733018   -0.1000
      6 H6         -7.9019    0.6861   64.6704 H       1  ZINC001060733018    0.0800
      7 C7         -9.8636    1.5578   64.8523 C.3     1  ZINC001060733018   -0.1100
      8 C8        -10.5174    0.5387   63.9169 C.3     1  ZINC001060733018   -0.1300
      9 C9        -10.3373    0.9894   62.4659 C.3     1  ZINC001060733018    0.1400
     10 H10       -10.8065    1.9635   62.3271 H       1  ZINC001060733018    0.0900
     11 N11       -10.9635    0.0138   61.5703 N.am    1  ZINC001060733018   -0.7300
     12 C12       -12.2987    0.0269   61.3871 C.2     1  ZINC001060733018    0.5200
     13 O13       -12.9817    0.8473   61.9627 O.2     1  ZINC001060733018   -0.5400
     14 C14       -12.9429   -0.9779   60.4671 C.3     1  ZINC001060733018   -0.1000
     15 H15       -12.5683   -1.9750   60.6986 H       1  ZINC001060733018    0.1000
     16 C16       -12.6058   -0.6306   59.0163 C.3     1  ZINC001060733018   -0.1100
     17 C17       -13.1939   -1.6872   58.0800 C.3     1  ZINC001060733018   -0.1200
     18 C18       -14.7213   -1.6780   58.1956 C.3     1  ZINC001060733018   -0.0800
     19 C19       -15.1089   -1.9084   59.6592 C.3     1  ZINC001060733018   -0.1300
     20 C20       -15.3475   -3.3486   60.1122 C.3     1  ZINC001060733018   -0.1700
     21 C21       -16.5294   -2.3900   59.9517 C.3     1  ZINC001060733018   -0.1700
     22 C22       -14.4622   -0.9458   60.6595 C.3     1  ZINC001060733018   -0.0600
     23 C23        -8.8449    1.0919   62.1452 C.3     1  ZINC001060733018   -0.1200
     24 C24        -8.1910    2.1109   63.0806 C.3     1  ZINC001060733018   -0.1100
     25 C25        -3.9251    2.2457   65.1724 C.3     1  ZINC001060733018    0.2600
     26 F26        -3.3106    3.1263   66.0691 F       1  ZINC001060733018   -0.1700
     27 F27        -3.2616    1.0143   65.1996 F       1  ZINC001060733018   -0.1900
     28 H28        -6.0747    3.5849   64.4720 H       1  ZINC001060733018    0.4100
     29 H29        -7.7642    2.3133   66.4927 H       1  ZINC001060733018    0.0800
     30 H30        -8.2460    3.6296   65.3956 H       1  ZINC001060733018    0.0800
     31 H31        -9.9918    1.2366   65.8860 H       1  ZINC001060733018    0.0700
     32 H32       -10.3327    2.5317   64.7135 H       1  ZINC001060733018    0.0700
     33 H33       -11.5806    0.4658   64.1454 H       1  ZINC001060733018    0.0700
     34 H34       -10.0483   -0.4352   64.0557 H       1  ZINC001060733018    0.0600
     35 H35       -10.4171   -0.6417   61.1090 H       1  ZINC001060733018    0.4000
     36 H36       -13.0252    0.3450   58.7706 H       1  ZINC001060733018    0.0700
     37 H37       -11.5232   -0.6011   58.8930 H       1  ZINC001060733018    0.0700
     38 H38       -12.9059   -1.4632   57.0528 H       1  ZINC001060733018    0.0700
     39 H39       -12.8144   -2.6705   58.3576 H       1  ZINC001060733018    0.0700
     40 H40       -15.1068   -0.7141   57.8633 H       1  ZINC001060733018    0.0700
     41 H41       -15.1391   -2.4728   57.5778 H       1  ZINC001060733018    0.0700
     42 H42       -15.2332   -4.1361   59.3673 H       1  ZINC001060733018    0.0900
     43 H43       -15.0482   -3.6134   61.1264 H       1  ZINC001060733018    0.0900
     44 H44       -17.0078   -2.0242   60.8602 H       1  ZINC001060733018    0.0900
     45 H45       -17.1929   -2.5465   59.1012 H       1  ZINC001060733018    0.0900
     46 H46       -14.7083   -1.2552   61.6754 H       1  ZINC001060733018    0.0700
     47 H47       -14.8311    0.0648   60.4845 H       1  ZINC001060733018    0.0800
     48 H48        -8.7166    1.4129   61.1114 H       1  ZINC001060733018    0.0700
     49 H49        -8.3757    0.1178   62.2840 H       1  ZINC001060733018    0.0700
     50 H50        -8.6601    3.0849   62.9417 H       1  ZINC001060733018    0.0700
     51 H51        -7.1277    2.1839   62.8521 H       1  ZINC001060733018    0.0700
     52 H52        -3.8788    2.6611   64.1658 H       1  ZINC001060733018    0.1400
@<TRIPOS>BOND
     1     1     2    2
     2     2     3   am
     3     2    25    1
     4     3     4    1
     5     3    28    1
     6     4     5    1
     7     4    29    1
     8     4    30    1
     9     5     6    1
    10     5    24    1
    11     5     7    1
    12     7     8    1
    13     7    31    1
    14     7    32    1
    15     8     9    1
    16     8    33    1
    17     8    34    1
    18     9    10    1
    19     9    11    1
    20     9    23    1
    21    11    12   am
    22    11    35    1
    23    12    13    2
    24    12    14    1
    25    14    15    1
    26    14    22    1
    27    14    16    1
    28    16    17    1
    29    16    36    1
    30    16    37    1
    31    17    18    1
    32    17    38    1
    33    17    39    1
    34    18    19    1
    35    18    40    1
    36    18    41    1
    37    19    21    1
    38    19    20    1
    39    19    22    1
    40    20    21    1
    41    20    42    1
    42    20    43    1
    43    21    44    1
    44    21    45    1
    45    22    46    1
    46    22    47    1
    47    23    24    1
    48    23    48    1
    49    23    49    1
    50    24    50    1
    51    24    51    1
    52    25    26    1
    53    25    27    1
    54    25    52    1
@<TRIPOS>SUBSTRUCTURE
     1 ZINC001060733018        1 TEMP              0 ****  ****    0 ROOT


##########                                Name:    ZINC000840649129
##########                DOCK_Rotatable_Bonds:                   8
##########                         Heavy_Atoms:                  26
##########                    Molecular_Weight:             376.839
##########                DOCK_Rotatable_Bonds:                   8
##########                       Formal_Charge:          -0.0199998
##########                     HBond_Acceptors:                   7
##########                        HBond_Donors:                   3
##########                         Heavy_Atoms:                  26
##########                          Grid_Score:          -28.229578
##########                     Grid_vdw_energy:          -30.146566
##########                      Grid_es_energy:            1.916988
##########           Internal_energy_repulsive:           11.636372

@<TRIPOS>MOLECULE
ZINC000840649129
 47 48 1 0 0
SMALL
USER_CHARGES


@<TRIPOS>ATOM
      1 C1         -6.3806    2.5732   51.2436 C.3     1  ZINC000840649129    0.0200
      2 O2         -5.3516    2.4687   52.2297 O.3     1  ZINC000840649129   -0.2900
      3 C3         -4.0691    2.5559   51.7938 C.ar    1  ZINC000840649129    0.1400
      4 C4         -3.6965    1.9473   50.6051 C.ar    1  ZINC000840649129   -0.1700
      5 C5         -2.3927    2.0348   50.1600 C.ar    1  ZINC000840649129   -0.1200
      6 C6         -1.4435    2.7334   50.8987 C.ar    1  ZINC000840649129    0.1700
      7 N7         -0.1241    2.8166   50.4392 N.pl3   1  ZINC000840649129   -0.8800
      8 C8         -1.8009    3.3470   52.0869 C.ar    1  ZINC000840649129   -0.1000
      9 C9         -3.1197    3.2663   52.5414 C.ar    1  ZINC000840649129   -0.1200
     10 C10        -3.5087    3.9173   53.8054 C.2     1  ZINC000840649129    0.5100
     11 O11        -3.9988    5.0292   53.7905 O.2     1  ZINC000840649129   -0.4800
     12 O12        -3.3208    3.2795   54.9774 O.3     1  ZINC000840649129   -0.3200
     13 C13        -2.4235    3.9056   55.9322 C.3     1  ZINC000840649129    0.0800
     14 H14        -2.1737    4.9102   55.5912 H       1  ZINC000840649129    0.1200
     15 C15        -1.1637    3.0869   56.0490 C.2     1  ZINC000840649129    0.5200
     16 O16        -1.2245    1.8756   56.0399 O.2     1  ZINC000840649129   -0.4900
     17 N17         0.0306    3.7008   56.1634 N.am    1  ZINC000840649129   -0.6600
     18 C18         1.2009    2.9404   56.2719 C.ar    1  ZINC000840649129    0.1600
     19 C19         1.5277    2.3349   57.4775 C.ar    1  ZINC000840649129   -0.1400
     20 C20         2.6833    1.5847   57.5815 C.ar    1  ZINC000840649129   -0.0900
     21 C21         3.5142    1.4363   56.4866 C.ar    1  ZINC000840649129   -0.1300
     22 C22         3.1925    2.0383   55.2837 C.ar    1  ZINC000840649129   -0.0900
     23 C23         2.0354    2.7853   55.1712 C.ar    1  ZINC000840649129   -0.0700
     24 Cl24        1.6316    3.5403   53.6610 Cl      1  ZINC000840649129   -0.0700
     25 C25        -3.1079    3.9859   57.2982 C.3     1  ZINC000840649129   -0.1100
     26 C26        -2.1670    4.6563   58.3013 C.3     1  ZINC000840649129   -0.1600
     27 C27        -4.3932    4.8072   57.1772 C.3     1  ZINC000840649129   -0.1500
     28 H28        -7.3550    2.4874   51.7247 H       1  ZINC000840649129    0.1000
     29 H29        -6.3067    3.5382   50.7423 H       1  ZINC000840649129    0.0600
     30 H30        -6.2651    1.7736   50.5119 H       1  ZINC000840649129    0.0600
     31 H31        -4.4279    1.4032   50.0262 H       1  ZINC000840649129    0.1400
     32 H32        -2.1082    1.5580   49.2335 H       1  ZINC000840649129    0.1300
     33 H33         0.1276    2.3874   49.6065 H       1  ZINC000840649129    0.4000
     34 H34         0.5387    3.3035   50.9535 H       1  ZINC000840649129    0.4000
     35 H35        -1.0631    3.8895   52.6594 H       1  ZINC000840649129    0.1400
     36 H36         0.0793    4.6695   56.1706 H       1  ZINC000840649129    0.4200
     37 H37         0.8795    2.4505   58.3336 H       1  ZINC000840649129    0.1700
     38 H38         2.9379    1.1138   58.5194 H       1  ZINC000840649129    0.1300
     39 H39         4.4168    0.8492   56.5709 H       1  ZINC000840649129    0.1300
     40 H40         3.8439    1.9208   54.4303 H       1  ZINC000840649129    0.1400
     41 H41        -3.3502    2.9807   57.6430 H       1  ZINC000840649129    0.0900
     42 H42        -1.8241    5.6089   57.8974 H       1  ZINC000840649129    0.0700
     43 H43        -2.6974    4.8286   59.2378 H       1  ZINC000840649129    0.0800
     44 H44        -1.3091    4.0090   58.4833 H       1  ZINC000840649129    0.0600
     45 H45        -5.0636    4.3297   56.4625 H       1  ZINC000840649129    0.0500
     46 H46        -4.8807    4.8645   58.1504 H       1  ZINC000840649129    0.0600
     47 H47        -4.1510    5.8125   56.8323 H       1  ZINC000840649129    0.0700
@<TRIPOS>BOND
     1     1     2    1
     2     1    28    1
     3     1    29    1
     4     1    30    1
     5     2     3    1
     6     3     9   ar
     7     3     4   ar
     8     4     5   ar
     9     4    31    1
    10     5     6   ar
    11     5    32    1
    12     6     7    1
    13     6     8   ar
    14     7    33    1
    15     7    34    1
    16     8     9   ar
    17     8    35    1
    18     9    10    1
    19    10    11    2
    20    10    12    1
    21    12    13    1
    22    13    14    1
    23    13    15    1
    24    13    25    1
    25    15    16    2
    26    15    17   am
    27    17    18    1
    28    17    36    1
    29    18    23   ar
    30    18    19   ar
    31    19    20   ar
    32    19    37    1
    33    20    21   ar
    34    20    38    1
    35    21    22   ar
    36    21    39    1
    37    22    23   ar
    38    22    40    1
    39    23    24    1
    40    25    26    1
    41    25    27    1
    42    25    41    1
    43    26    42    1
    44    26    43    1
    45    26    44    1
    46    27    45    1
    47    27    46    1
    48    27    47    1
@<TRIPOS>SUBSTRUCTURE
     1 ZINC000840649129        1 TEMP              0 ****  ****    0 ROOT


##########                                Name:    ZINC000286156371
##########                DOCK_Rotatable_Bonds:                   7
##########                         Heavy_Atoms:                  25
##########                    Molecular_Weight:             350.418
##########                DOCK_Rotatable_Bonds:                   7
##########                       Formal_Charge:          0.00999908
##########                     HBond_Acceptors:                   8
##########                        HBond_Donors:                   2
##########                         Heavy_Atoms:                  25
##########                          Grid_Score:          -28.217926
##########                     Grid_vdw_energy:          -27.987576
##########                      Grid_es_energy:           -0.230350
##########           Internal_energy_repulsive:           33.104664

@<TRIPOS>MOLECULE
ZINC000286156371
 51 53 1 0 0
SMALL
USER_CHARGES


@<TRIPOS>ATOM
      1 C1         -7.5011    0.9743   58.5165 C.3     1  <0>        -0.1800
      2 C2         -8.7500    0.5414   59.2872 C.3     1  <0>         0.1400
      3 C3         -8.3581   -0.4691   60.3671 C.3     1  <0>        -0.1800
      4 C4         -9.3942    1.7645   59.9427 C.3     1  <0>        -0.1400
      5 O5         -9.6955   -0.0713   58.3714 O.3     1  <0>        -0.3600
      6 C6        -10.0828    0.6626   57.3111 C.2     1  <0>         0.6800
      7 O7         -9.7761    1.8362   57.2400 O.2     1  <0>        -0.5600
      8 N8        -10.8107    0.0955   56.3287 N.am    1  <0>        -0.5800
      9 C9        -11.2503   -1.3110   56.2876 C.3     1  <0>         0.0700
     10 C10       -12.5002   -1.3093   55.3724 C.3     1  <0>         0.0900
     11 H11       -12.6529   -2.2881   54.9179 H       1  <0>         0.0900
     12 O12       -13.6624   -0.8954   56.0935 O.3     1  <0>        -0.5500
     13 C13       -12.1029   -0.2560   54.3047 C.3     1  <0>        -0.1200
     14 C14       -11.3032    0.7789   55.1237 C.3     1  <0>         0.1500
     15 H15       -11.9498    1.6112   55.4016 H       1  <0>         0.1100
     16 C16       -10.1376    1.2840   54.3131 C.2     1  <0>         0.5200
     17 O17       -10.2128    2.3519   53.7430 O.2     1  <0>        -0.4900
     18 N18        -9.0116    0.5490   54.2215 N.am    1  <0>        -0.6300
     19 C19        -7.9268    1.0195   53.4689 C.2     1  <0>         0.3000
     20 N20        -7.4359    0.4565   52.3880 N.2     1  <0>        -0.3200
     21 N21        -6.3652    1.2342   51.9416 N.pl3   1  <0>        -0.3600
     22 C22        -5.5170    0.9952   50.7698 C.3     1  <0>         0.1400
     23 C23        -4.7794    2.2922   50.4214 C.3     1  <0>        -0.1400
     24 C24        -4.1014    2.8495   51.6766 C.3     1  <0>        -0.1300
     25 C25        -5.1760    3.3551   52.6480 C.3     1  <0>        -0.0600
     26 C26        -6.2270    2.2813   52.7879 C.2     1  <0>         0.0900
     27 C27        -7.1786    2.1794   53.7357 C.2     1  <0>        -0.2600
     28 H28        -7.0420    0.1029   58.0495 H       1  <0>         0.0900
     29 H29        -7.7803    1.6942   57.7472 H       1  <0>         0.0600
     30 H30        -6.7912    1.4343   59.2040 H       1  <0>         0.0700
     31 H31        -7.6482   -0.0091   61.0546 H       1  <0>         0.0700
     32 H32        -9.2478   -0.7774   60.9162 H       1  <0>         0.0600
     33 H33        -7.8991   -1.3404   59.9001 H       1  <0>         0.0900
     34 H34        -9.6734    2.4843   59.1733 H       1  <0>         0.0700
     35 H35       -10.2839    1.4561   60.4917 H       1  <0>         0.0700
     36 H36        -8.6843    2.2245   60.6302 H       1  <0>         0.0800
     37 H37       -10.4690   -1.9404   55.8615 H       1  <0>         0.0800
     38 H38       -11.5130   -1.6558   57.2878 H       1  <0>         0.0900
     39 H39       -13.9733   -1.5414   56.7426 H       1  <0>         0.3900
     40 H40       -11.4799   -0.7063   53.5319 H       1  <0>         0.1000
     41 H41       -12.9895    0.2034   53.8676 H       1  <0>         0.1100
     42 H42        -8.9519   -0.3057   54.6764 H       1  <0>         0.4200
     43 H43        -4.7930    0.2126   50.9965 H       1  <0>         0.0800
     44 H44        -6.1366    0.6895   49.9268 H       1  <0>         0.0900
     45 H45        -4.0249    2.0880   49.6617 H       1  <0>         0.0900
     46 H46        -5.4914    3.0234   50.0385 H       1  <0>         0.0800
     47 H47        -3.5187    2.0626   52.1555 H       1  <0>         0.0700
     48 H48        -3.4439    3.6737   51.4000 H       1  <0>         0.0800
     49 H49        -4.7268    3.5587   53.6200 H       1  <0>         0.0900
     50 H50        -5.6296    4.2645   52.2539 H       1  <0>         0.0900
     51 H51        -7.3369    2.8648   54.5552 H       1  <0>         0.1700
@<TRIPOS>BOND
     1     1     2    1
     2     1    28    1
     3     1    29    1
     4     1    30    1
     5     2     3    1
     6     2     4    1
     7     2     5    1
     8     3    31    1
     9     3    32    1
    10     3    33    1
    11     4    34    1
    12     4    35    1
    13     4    36    1
    14     5     6    1
    15     6     7    2
    16     6     8   am
    17     8    14    1
    18     8     9    1
    19     9    10    1
    20     9    37    1
    21     9    38    1
    22    10    11    1
    23    10    12    1
    24    10    13    1
    25    12    39    1
    26    13    14    1
    27    13    40    1
    28    13    41    1
    29    14    15    1
    30    14    16    1
    31    16    17    2
    32    16    18   am
    33    18    19    1
    34    18    42    1
    35    19    27    1
    36    19    20    2
    37    20    21    1
    38    21    26    1
    39    21    22    1
    40    22    23    1
    41    22    43    1
    42    22    44    1
    43    23    24    1
    44    23    45    1
    45    23    46    1
    46    24    25    1
    47    24    47    1
    48    24    48    1
    49    25    26    1
    50    25    49    1
    51    25    50    1
    52    26    27    2
    53    27    51    1
@<TRIPOS>SUBSTRUCTURE
     1 <0>         1 TEMP              0 ****  ****    0 ROOT


##########                                Name:    ZINC001456096501
##########                DOCK_Rotatable_Bonds:                   7
##########                         Heavy_Atoms:                  24
##########                    Molecular_Weight:             333.431
##########                DOCK_Rotatable_Bonds:                   7
##########                       Formal_Charge:          -0.0200003
##########                     HBond_Acceptors:                   6
##########                        HBond_Donors:                   0
##########                         Heavy_Atoms:                  24
##########                          Grid_Score:          -28.212566
##########                     Grid_vdw_energy:          -28.359781
##########                      Grid_es_energy:            0.147215
##########           Internal_energy_repulsive:          130.041473

@<TRIPOS>MOLECULE
ZINC001456096501
 51 52 1 0 0
SMALL
USER_CHARGES


@<TRIPOS>ATOM
      1 C1         -5.0748    1.9379   51.2569 C.3     1  ZINC001456096501    0.0400
      2 O2         -4.3392    3.1388   51.4990 O.3     1  ZINC001456096501   -0.2900
      3 C3         -2.9953    3.0786   51.3432 C.ar    1  ZINC001456096501    0.3700
      4 N4         -2.4769    2.3111   50.3998 N.ar    1  ZINC001456096501   -0.5400
      5 C5         -1.1741    2.2231   50.2130 C.ar    1  ZINC001456096501    0.1600
      6 C6         -0.2879    2.9346   51.0013 C.ar    1  ZINC001456096501   -0.2200
      7 C7         -0.7757    3.7538   52.0042 C.ar    1  ZINC001456096501   -0.0200
      8 C8         -2.1616    3.8355   52.1804 C.ar    1  ZINC001456096501   -0.2000
      9 C9         -2.7354    4.6940   53.2342 C.2     1  ZINC001456096501    0.5900
     10 O10        -3.3193    5.7172   52.9338 O.2     1  ZINC001456096501   -0.5100
     11 N11        -2.6123    4.3438   54.5299 N.am    1  ZINC001456096501   -0.6200
     12 C12        -3.1336    5.1031   55.6759 C.3     1  ZINC001456096501    0.1000
     13 C13        -2.7332    4.3362   56.9538 C.3     1  ZINC001456096501   -0.1200
     14 C14        -1.5227    3.4867   56.4844 C.3     1  ZINC001456096501   -0.1200
     15 H15        -0.6042    4.0734   56.4995 H       1  ZINC001456096501    0.0900
     16 C16        -1.3770    2.2230   57.3347 C.3     1  ZINC001456096501    0.1200
     17 N17        -0.0849    2.2453   58.0249 N.am    1  ZINC001456096501   -0.6200
     18 C18         1.1413    2.5288   57.2750 C.3     1  ZINC001456096501    0.0600
     19 C19        -0.0243    2.0053   59.3497 C.2     1  ZINC001456096501    0.5200
     20 O20        -1.0393    1.7706   59.9706 O.2     1  ZINC001456096501   -0.5300
     21 C21         1.3048    2.0283   60.0596 C.3     1  ZINC001456096501   -0.0800
     22 C22         2.1128    0.7889   59.6696 C.3     1  ZINC001456096501   -0.1300
     23 C23         2.0761    3.2871   59.6577 C.3     1  ZINC001456096501   -0.1500
     24 C24         1.0752    2.0320   61.5723 C.3     1  ZINC001456096501   -0.1700
     25 C25        -1.9383    3.1328   55.0323 C.3     1  ZINC001456096501    0.1200
     26 H26        -4.9134    1.6138   50.2288 H       1  ZINC001456096501    0.0600
     27 H27        -4.7353    1.1597   51.9406 H       1  ZINC001456096501    0.0600
     28 H28        -6.1369    2.1238   51.4167 H       1  ZINC001456096501    0.1000
     29 H29        -0.7925    1.5838   49.4308 H       1  ZINC001456096501    0.1700
     30 H30         0.7761    2.8513   50.8357 H       1  ZINC001456096501    0.1500
     31 H31        -0.1036    4.3190   52.6330 H       1  ZINC001456096501    0.1500
     32 H32        -2.6953    6.1010   55.6897 H       1  ZINC001456096501    0.0700
     33 H33        -4.2193    5.1737   55.6108 H       1  ZINC001456096501    0.0700
     34 H34        -2.4362    5.0283   57.7418 H       1  ZINC001456096501    0.0900
     35 H35        -3.5478    3.6945   57.2896 H       1  ZINC001456096501    0.0800
     36 H36        -2.1809    2.1850   58.0697 H       1  ZINC001456096501    0.0800
     37 H37        -1.4304    1.3444   56.6919 H       1  ZINC001456096501    0.0900
     38 H38         1.3562    3.5964   57.3200 H       1  ZINC001456096501    0.0600
     39 H39         1.9709    1.9724   57.7114 H       1  ZINC001456096501    0.0900
     40 H40         1.0092    2.2283   56.2356 H       1  ZINC001456096501    0.0700
     41 H41         2.2764    0.7861   58.5920 H       1  ZINC001456096501    0.0600
     42 H42         3.0741    0.8055   60.1830 H       1  ZINC001456096501    0.0600
     43 H43         1.5633   -0.1079   59.9559 H       1  ZINC001456096501    0.0600
     44 H44         1.4473    4.1637   59.8138 H       1  ZINC001456096501    0.0700
     45 H45         2.9758    3.3720   60.2671 H       1  ZINC001456096501    0.0700
     46 H46         2.3545    3.2223   58.6059 H       1  ZINC001456096501    0.0600
     47 H47         0.5257    1.1352   61.8586 H       1  ZINC001456096501    0.0600
     48 H48         2.0365    2.0486   62.0857 H       1  ZINC001456096501    0.0700
     49 H49         0.4995    2.9150   61.8501 H       1  ZINC001456096501    0.0800
     50 H50        -2.6212    2.2833   55.0294 H       1  ZINC001456096501    0.0800
     51 H51        -1.0576    2.9147   54.4281 H       1  ZINC001456096501    0.0700
@<TRIPOS>BOND
     1     1     2    1
     2     1    26    1
     3     1    27    1
     4     1    28    1
     5     2     3    1
     6     3     8   ar
     7     3     4   ar
     8     4     5   ar
     9     5     6   ar
    10     5    29    1
    11     6     7   ar
    12     6    30    1
    13     7     8   ar
    14     7    31    1
    15     8     9    1
    16     9    10    2
    17     9    11   am
    18    11    25    1
    19    11    12    1
    20    12    13    1
    21    12    32    1
    22    12    33    1
    23    13    14    1
    24    13    34    1
    25    13    35    1
    26    14    15    1
    27    14    16    1
    28    14    25    1
    29    16    17    1
    30    16    36    1
    31    16    37    1
    32    17    18    1
    33    17    19   am
    34    18    38    1
    35    18    39    1
    36    18    40    1
    37    19    20    2
    38    19    21    1
    39    21    22    1
    40    21    23    1
    41    21    24    1
    42    22    41    1
    43    22    42    1
    44    22    43    1
    45    23    44    1
    46    23    45    1
    47    23    46    1
    48    24    47    1
    49    24    48    1
    50    24    49    1
    51    25    50    1
    52    25    51    1
@<TRIPOS>SUBSTRUCTURE
     1 ZINC001456096501        1 TEMP              0 ****  ****    0 ROOT


##########                                Name:    ZINC001067560454
##########                DOCK_Rotatable_Bonds:                   4
##########                         Heavy_Atoms:                  25
##########                    Molecular_Weight:             342.444
##########                DOCK_Rotatable_Bonds:                   4
##########                       Formal_Charge:          0.00999971
##########                     HBond_Acceptors:                   7
##########                        HBond_Donors:                   1
##########                         Heavy_Atoms:                  25
##########                          Grid_Score:          -28.163212
##########                     Grid_vdw_energy:          -27.371822
##########                      Grid_es_energy:           -0.791389
##########           Internal_energy_repulsive:           11.031935

@<TRIPOS>MOLECULE
ZINC001067560454
 51 54 1 0 0
SMALL
USER_CHARGES


@<TRIPOS>ATOM
      1 C1         -7.7820   -0.0436   59.5463 C.3     1  ZINC001067560454   -0.1500
      2 C2         -8.9517   -0.4753   60.4332 C.3     1  ZINC001067560454    0.1000
      3 H3         -8.8563   -1.5351   60.6696 H       1  ZINC001067560454    0.0600
      4 C4         -8.9371    0.3396   61.7285 C.3     1  ZINC001067560454   -0.1200
      5 C5        -10.1206   -0.0816   62.6039 C.3     1  ZINC001067560454    0.1400
      6 H6        -10.0189   -1.1331   62.8729 H       1  ZINC001067560454    0.0900
      7 N7        -10.1447    0.7346   63.8203 N.am    1  ZINC001067560454   -0.7200
      8 C8         -9.5929    0.2663   64.9572 C.2     1  ZINC001067560454    0.5400
      9 O9         -9.0776   -0.8314   64.9737 O.2     1  ZINC001067560454   -0.5300
     10 C10        -9.6162    1.1067   66.2080 C.3     1  ZINC001067560454   -0.1100
     11 C11       -10.9500    1.8269   66.4150 C.3     1  ZINC001067560454   -0.1300
     12 C12        -9.1139    0.3649   67.4579 C.3     1  ZINC001067560454   -0.1200
     13 C13        -7.7051    0.8586   67.0884 C.3     1  ZINC001067560454   -0.1400
     14 C14        -8.3910    2.0242   66.3564 C.3     1  ZINC001067560454   -0.1200
     15 C15       -11.4215    0.1232   61.8228 C.3     1  ZINC001067560454   -0.1200
     16 C16       -11.3641   -0.6854   60.5248 C.3     1  ZINC001067560454    0.0600
     17 N17       -10.2158   -0.2444   59.7226 N.3     1  ZINC001067560454   -0.4900
     18 C18       -10.2087   -0.8631   58.4847 C.ar    1  ZINC001067560454    0.4400
     19 C19       -10.3389   -0.1115   57.3046 C.ar    1  ZINC001067560454   -0.0800
     20 N20       -10.4869    1.2059   57.0256 N.2     1  ZINC001067560454   -0.4700
     21 C21       -10.5621    1.3699   55.7367 C.2     1  ZINC001067560454    0.2700
     22 N22       -10.4668    0.1644   55.1075 N.pl3   1  ZINC001067560454   -0.4800
     23 C23       -10.5083   -0.0642   53.6611 C.3     1  ZINC001067560454    0.0800
     24 C24       -10.3242   -0.7957   56.0772 C.ar    1  ZINC001067560454    0.2800
     25 N25       -10.1884   -2.1176   56.0764 N.ar    1  ZINC001067560454   -0.5200
     26 C26       -10.0691   -2.7806   57.2074 C.ar    1  ZINC001067560454    0.3300
     27 N27       -10.0731   -2.1814   58.3840 N.ar    1  ZINC001067560454   -0.5100
     28 H28        -7.8772    1.0161   59.3096 H       1  ZINC001067560454    0.0700
     29 H29        -6.8436   -0.2154   60.0734 H       1  ZINC001067560454    0.0700
     30 H30        -7.7920   -0.6242   58.6238 H       1  ZINC001067560454    0.0500
     31 H31        -8.0053    0.1560   62.2634 H       1  ZINC001067560454    0.0800
     32 H32        -9.0188    1.4004   61.4920 H       1  ZINC001067560454    0.0800
     33 H33       -10.5580    1.6121   63.8074 H       1  ZINC001067560454    0.4000
     34 H34       -11.7674    1.1119   66.3219 H       1  ZINC001067560454    0.0600
     35 H35       -10.9706    2.2750   67.4085 H       1  ZINC001067560454    0.0700
     36 H36       -11.0624    2.6072   65.6622 H       1  ZINC001067560454    0.0600
     37 H37        -9.4908    0.7798   68.3927 H       1  ZINC001067560454    0.0900
     38 H38        -9.2269   -0.7175   67.3981 H       1  ZINC001067560454    0.0700
     39 H39        -7.1125    1.1712   67.9482 H       1  ZINC001067560454    0.0700
     40 H40        -7.1658    0.1830   66.4245 H       1  ZINC001067560454    0.0800
     41 H41        -7.9204    2.2813   65.4074 H       1  ZINC001067560454    0.0800
     42 H42        -8.5703    2.8928   66.9901 H       1  ZINC001067560454    0.0900
     43 H43       -12.2647   -0.2150   62.4251 H       1  ZINC001067560454    0.0800
     44 H44       -11.5423    1.1807   61.5877 H       1  ZINC001067560454    0.0800
     45 H45       -11.2572   -1.7441   60.7608 H       1  ZINC001067560454    0.0700
     46 H46       -12.2829   -0.5305   59.9593 H       1  ZINC001067560454    0.0800
     47 H47       -10.6826    2.3208   55.2391 H       1  ZINC001067560454    0.2300
     48 H48        -9.4974   -0.0156   53.2563 H       1  ZINC001067560454    0.0800
     49 H49       -10.9331   -1.0477   53.4606 H       1  ZINC001067560454    0.0900
     50 H50       -11.1254    0.7009   53.1899 H       1  ZINC001067560454    0.0900
     51 H51        -9.9604   -3.8545   57.1715 H       1  ZINC001067560454    0.2100
@<TRIPOS>BOND
     1     1     2    1
     2     1    28    1
     3     1    29    1
     4     1    30    1
     5     2     3    1
     6     2    17    1
     7     2     4    1
     8     4     5    1
     9     4    31    1
    10     4    32    1
    11     5     6    1
    12     5     7    1
    13     5    15    1
    14     7     8   am
    15     7    33    1
    16     8     9    2
    17     8    10    1
    18    10    14    1
    19    10    11    1
    20    10    12    1
    21    11    34    1
    22    11    35    1
    23    11    36    1
    24    12    13    1
    25    12    37    1
    26    12    38    1
    27    13    14    1
    28    13    39    1
    29    13    40    1
    30    14    41    1
    31    14    42    1
    32    15    16    1
    33    15    43    1
    34    15    44    1
    35    16    17    1
    36    16    45    1
    37    16    46    1
    38    17    18    1
    39    18    27   ar
    40    18    19   ar
    41    19    24   ar
    42    19    20    1
    43    20    21    2
    44    21    22    1
    45    21    47    1
    46    22    23    1
    47    22    24    1
    48    23    48    1
    49    23    49    1
    50    23    50    1
    51    24    25   ar
    52    25    26   ar
    53    26    27   ar
    54    26    51    1
@<TRIPOS>SUBSTRUCTURE
     1 ZINC001067560454        1 TEMP              0 ****  ****    0 ROOT


##########                                Name:    ZINC000057429281
##########                DOCK_Rotatable_Bonds:                  10
##########                         Heavy_Atoms:                  23
##########                    Molecular_Weight:             331.295
##########                DOCK_Rotatable_Bonds:                  10
##########                       Formal_Charge:          -0.0100002
##########                     HBond_Acceptors:                   9
##########                        HBond_Donors:                   5
##########                         Heavy_Atoms:                  23
##########                          Grid_Score:          -28.153549
##########                     Grid_vdw_energy:          -27.930742
##########                      Grid_es_energy:           -0.222807
##########           Internal_energy_repulsive:           10.823997

@<TRIPOS>MOLECULE
ZINC000057429281
 39 39 1 0 0
SMALL
USER_CHARGES


@<TRIPOS>ATOM
      1 C1        -11.1837    0.6423   52.9040 C.3     1  ZINC000057429281   -0.1500
      2 C2         -9.9980   -0.0014   53.6256 C.3     1  ZINC000057429281   -0.0400
      3 H3        -10.0434   -1.0837   53.5051 H       1  ZINC000057429281    0.0900
      4 C4        -10.0552    0.3491   55.1137 C.3     1  ZINC000057429281   -0.1300
      5 C5        -10.7888   -0.7369   55.8577 C.2     1  ZINC000057429281    0.5200
      6 O6        -11.7514   -1.2743   55.3523 O.2     1  ZINC000057429281   -0.5300
      7 N7        -10.3752   -1.1110   57.0846 N.am    1  ZINC000057429281   -0.7000
      8 C8        -11.0893   -2.1655   57.8086 C.3     1  ZINC000057429281    0.1100
      9 C9        -10.4055   -3.4878   57.5737 C.2     1  ZINC000057429281    0.5200
     10 N10        -9.7923   -3.7297   56.3983 N.am    1  ZINC000057429281   -0.8500
     11 O11       -10.4072   -4.3340   58.4424 O.2     1  ZINC000057429281   -0.5100
     12 C12       -11.0863   -1.8533   59.2829 C.2     1  ZINC000057429281    0.5300
     13 N13       -10.0623   -1.1637   59.8236 N.am    1  ZINC000057429281   -0.8400
     14 O14       -12.0053   -2.2225   59.9829 O.2     1  ZINC000057429281   -0.5100
     15 C15        -8.7108    0.5159   53.0368 C.ar    1  ZINC000057429281   -0.0500
     16 C16        -7.8612   -0.3456   52.3683 C.ar    1  ZINC000057429281   -0.1200
     17 C17        -6.6804    0.1289   51.8282 C.ar    1  ZINC000057429281   -0.0700
     18 C18        -6.3496    1.4649   51.9561 C.ar    1  ZINC000057429281   -0.1900
     19 C19        -5.0622    1.9821   51.3676 C.3     1  ZINC000057429281    0.5100
     20 F20        -4.4055    0.9443   50.6977 F       1  ZINC000057429281   -0.1800
     21 F21        -5.3431    3.0147   50.4665 F       1  ZINC000057429281   -0.1800
     22 F22        -4.2430    2.4676   52.3925 F       1  ZINC000057429281   -0.1800
     23 C23        -7.1999    2.3267   52.6233 C.ar    1  ZINC000057429281   -0.0700
     24 C24        -8.3824    1.8530   53.1602 C.ar    1  ZINC000057429281   -0.1100
     25 H25       -11.1429    0.3926   51.8438 H       1  ZINC000057429281    0.0600
     26 H26       -12.1147    0.2681   53.3298 H       1  ZINC000057429281    0.0800
     27 H27       -11.1383    1.7247   53.0243 H       1  ZINC000057429281    0.0500
     28 H28        -9.0419    0.4372   55.5055 H       1  ZINC000057429281    0.1000
     29 H29       -10.5788    1.2962   55.2440 H       1  ZINC000057429281    0.1000
     30 H30        -9.6045   -0.6819   57.4884 H       1  ZINC000057429281    0.4200
     31 H31       -12.1175   -2.2195   57.4508 H       1  ZINC000057429281    0.1300
     32 H32        -9.3521   -4.5808   56.2469 H       1  ZINC000057429281    0.4000
     33 H33        -9.7912   -3.0529   55.7035 H       1  ZINC000057429281    0.4100
     34 H34       -10.0603   -0.9627   60.7726 H       1  ZINC000057429281    0.4000
     35 H35        -9.3273   -0.8683   59.2637 H       1  ZINC000057429281    0.4100
     36 H36        -8.1196   -1.3895   52.2683 H       1  ZINC000057429281    0.1400
     37 H37        -6.0163   -0.5443   51.3065 H       1  ZINC000057429281    0.1400
     38 H38        -6.9416    3.3707   52.7229 H       1  ZINC000057429281    0.1400
     39 H39        -9.0467    2.5263   53.6814 H       1  ZINC000057429281    0.1400
@<TRIPOS>BOND
     1     1     2    1
     2     1    25    1
     3     1    26    1
     4     1    27    1
     5     2     3    1
     6     2     4    1
     7     2    15    1
     8     4     5    1
     9     4    28    1
    10     4    29    1
    11     5     6    2
    12     5     7   am
    13     7     8    1
    14     7    30    1
    15     8     9    1
    16     8    12    1
    17     8    31    1
    18     9    10   am
    19     9    11    2
    20    10    32    1
    21    10    33    1
    22    12    13   am
    23    12    14    2
    24    13    34    1
    25    13    35    1
    26    15    24   ar
    27    15    16   ar
    28    16    17   ar
    29    16    36    1
    30    17    18   ar
    31    17    37    1
    32    18    19    1
    33    18    23   ar
    34    19    20    1
    35    19    21    1
    36    19    22    1
    37    23    24   ar
    38    23    38    1
    39    24    39    1
@<TRIPOS>SUBSTRUCTURE
     1 ZINC000057429281        1 TEMP              0 ****  ****    0 ROOT


##########                                Name:    ZINC000010935976
##########                DOCK_Rotatable_Bonds:                   3
##########                         Heavy_Atoms:                  26
##########                    Molecular_Weight:             391.558
##########                DOCK_Rotatable_Bonds:                   3
##########                       Formal_Charge:         -0.00999979
##########                     HBond_Acceptors:                   7
##########                        HBond_Donors:                   1
##########                         Heavy_Atoms:                  26
##########                          Grid_Score:          -28.152044
##########                     Grid_vdw_energy:          -25.924063
##########                      Grid_es_energy:           -2.227982
##########           Internal_energy_repulsive:          125.699234

@<TRIPOS>MOLECULE
ZINC000010935976
 51 54 1 0 0
SMALL
USER_CHARGES


@<TRIPOS>ATOM
      1 C1        -16.1715   -2.8422   59.6744 C.3     1  ZINC000010935976   -0.0800
      2 C2        -15.0650   -1.9424   60.1612 C.2     1  ZINC000010935976   -0.2100
      3 C3        -13.9164   -1.7710   59.5365 C.2     1  ZINC000010935976   -0.0400
      4 C4        -13.5829   -2.4705   58.2439 C.3     1  ZINC000010935976   -0.1000
      5 C5        -12.9984   -0.8564   60.1897 C.2     1  ZINC000010935976   -0.2300
      6 C6        -13.5282   -0.3348   61.3678 C.2     1  ZINC000010935976    0.0900
      7 N7        -12.8017    0.5336   62.0991 N.2     1  ZINC000010935976   -0.4900
      8 C8        -11.5995    0.9050   61.7297 C.2     1  ZINC000010935976    0.3400
      9 S9        -10.7047    2.0436   62.7336 S.3     1  ZINC000010935976    0.0500
     10 C10       -10.6290    1.1067   64.2804 C.3     1  ZINC000010935976   -0.1000
     11 H11       -11.5410    0.5217   64.3992 H       1  ZINC000010935976    0.1400
     12 C12       -10.4795    2.0714   65.4592 C.3     1  ZINC000010935976   -0.1000
     13 C13        -9.6320    3.2690   65.0697 C.3     1  ZINC000010935976   -0.1300
     14 C14        -8.1813    2.9263   64.7840 C.3     1  ZINC000010935976   -0.1400
     15 C15        -8.0623    2.0644   63.5257 C.3     1  ZINC000010935976    0.0700
     16 N16        -8.2297    0.6520   63.9046 N.am    1  ZINC000010935976   -0.7200
     17 C17        -9.4306    0.1813   64.2565 C.2     1  ZINC000010935976    0.5400
     18 O18        -9.5567   -0.9856   64.5618 O.2     1  ZINC000010935976   -0.5200
     19 N19       -11.0245    0.4304   60.5864 N.am    1  ZINC000010935976   -0.5100
     20 C20        -9.6788    0.8703   60.2098 C.3     1  ZINC000010935976    0.1200
     21 C21        -8.6628   -0.2632   60.4607 C.3     1  ZINC000010935976   -0.1300
     22 C22        -8.5258   -0.9618   59.0852 C.3     1  ZINC000010935976   -0.1300
     23 C23        -8.5828    0.2251   58.0917 C.3     1  ZINC000010935976   -0.1100
     24 C24        -9.6280    1.1807   58.7035 C.3     1  ZINC000010935976   -0.1200
     25 C25       -11.6887   -0.4416   59.8033 C.2     1  ZINC000010935976    0.5600
     26 O26       -11.1800   -0.8684   58.7809 O.2     1  ZINC000010935976   -0.5000
     27 S27       -15.1426   -0.9835   61.6270 S.3     1  ZINC000010935976    0.2100
     28 H28       -17.0088   -2.7980   60.3710 H       1  ZINC000010935976    0.0700
     29 H29       -16.5008   -2.5126   58.6891 H       1  ZINC000010935976    0.0800
     30 H30       -15.8052   -3.8669   59.6112 H       1  ZINC000010935976    0.0800
     31 H31       -13.9072   -1.8559   57.4041 H       1  ZINC000010935976    0.0700
     32 H32       -12.5062   -2.6290   58.1839 H       1  ZINC000010935976    0.0800
     33 H33       -14.0943   -3.4324   58.2091 H       1  ZINC000010935976    0.0700
     34 H34       -11.4664    2.4155   65.7687 H       1  ZINC000010935976    0.0900
     35 H35       -10.0046    1.5510   66.2909 H       1  ZINC000010935976    0.0900
     36 H36       -10.0636    3.7256   64.1790 H       1  ZINC000010935976    0.0700
     37 H37        -9.6645    3.9967   65.8806 H       1  ZINC000010935976    0.0800
     38 H38        -7.6166    3.8477   64.6420 H       1  ZINC000010935976    0.0800
     39 H39        -7.7682    2.3808   65.6325 H       1  ZINC000010935976    0.0700
     40 H40        -8.8383    2.3467   62.8142 H       1  ZINC000010935976    0.1100
     41 H41        -7.0801    2.2084   63.0754 H       1  ZINC000010935976    0.0900
     42 H42        -7.4637    0.0569   63.8967 H       1  ZINC000010935976    0.4000
     43 H43        -9.4014    1.7550   60.7830 H       1  ZINC000010935976    0.1000
     44 H44        -7.7039    0.1473   60.7772 H       1  ZINC000010935976    0.0800
     45 H45        -9.0453   -0.9602   61.2062 H       1  ZINC000010935976    0.0700
     46 H46        -7.5714   -1.4830   59.0100 H       1  ZINC000010935976    0.0600
     47 H47        -9.3560   -1.6475   58.9158 H       1  ZINC000010935976    0.1100
     48 H48        -7.6111    0.7144   58.0257 H       1  ZINC000010935976    0.0600
     49 H49        -8.9070   -0.1156   57.1084 H       1  ZINC000010935976    0.0700
     50 H50       -10.6045    1.0040   58.2528 H       1  ZINC000010935976    0.0800
     51 H51        -9.3251    2.2159   58.5457 H       1  ZINC000010935976    0.0700
@<TRIPOS>BOND
     1     1     2    1
     2     1    28    1
     3     1    29    1
     4     1    30    1
     5     2    27    1
     6     2     3    2
     7     3     4    1
     8     3     5    1
     9     4    31    1
    10     4    32    1
    11     4    33    1
    12     5    25    1
    13     5     6    2
    14     6     7    1
    15     6    27    1
    16     7     8    2
    17     8     9    1
    18     8    19    1
    19     9    10    1
    20    10    11    1
    21    10    17    1
    22    10    12    1
    23    12    13    1
    24    12    34    1
    25    12    35    1
    26    13    14    1
    27    13    36    1
    28    13    37    1
    29    14    15    1
    30    14    38    1
    31    14    39    1
    32    15    16    1
    33    15    40    1
    34    15    41    1
    35    16    17   am
    36    16    42    1
    37    17    18    2
    38    19    20    1
    39    19    25   am
    40    20    24    1
    41    20    21    1
    42    20    43    1
    43    21    22    1
    44    21    44    1
    45    21    45    1
    46    22    23    1
    47    22    46    1
    48    22    47    1
    49    23    24    1
    50    23    48    1
    51    23    49    1
    52    24    50    1
    53    24    51    1
    54    25    26    2
@<TRIPOS>SUBSTRUCTURE
     1 ZINC000010935976        1 TEMP              0 ****  ****    0 ROOT


##########                                Name:    ZINC000647468483
##########                DOCK_Rotatable_Bonds:                   5
##########                         Heavy_Atoms:                  24
##########                    Molecular_Weight:             341.373
##########                DOCK_Rotatable_Bonds:                   5
##########                       Formal_Charge:           0.0300004
##########                     HBond_Acceptors:                   6
##########                        HBond_Donors:                   2
##########                         Heavy_Atoms:                  24
##########                          Grid_Score:          -28.151817
##########                     Grid_vdw_energy:          -19.693363
##########                      Grid_es_energy:           -8.458455
##########           Internal_energy_repulsive:           20.407856

@<TRIPOS>MOLECULE
ZINC000647468483
 46 48 1 0 0
SMALL
USER_CHARGES


@<TRIPOS>ATOM
      1 O1        -16.8964    0.3308   62.6542 O.co2   1  ZINC000647468483   -0.6800
      2 C2        -15.7002    0.1466   62.5067 C.2     1  ZINC000647468483    0.5000
      3 O3        -14.9798    0.0092   63.4807 O.co2   1  ZINC000647468483   -0.6900
      4 C4        -15.1131    0.0825   61.1201 C.3     1  ZINC000647468483   -0.1500
      5 H5        -15.6841    0.7052   60.4314 H       1  ZINC000647468483    0.0800
      6 C6        -15.0533   -1.3809   60.6165 C.3     1  ZINC000647468483   -0.1100
      7 C7        -13.9376   -1.3691   59.5512 C.3     1  ZINC000647468483   -0.1400
      8 C8        -13.0271   -0.1734   59.8815 C.3     1  ZINC000647468483    0.0100
      9 H9        -13.0181    0.5303   59.0491 H       1  ZINC000647468483    0.1400
     10 N10       -11.6627   -0.6414   60.1591 N.4     1  ZINC000647468483   -0.5000
     11 H11       -11.6649   -1.2087   60.9935 H       1  ZINC000647468483    0.4200
     12 H12       -11.3303   -1.1900   59.3802 H       1  ZINC000647468483    0.4300
     13 C13       -10.7788    0.5154   60.3559 C.3     1  ZINC000647468483    0.0200
     14 H14       -11.3610    1.4367   60.3399 H       1  ZINC000647468483    0.1500
     15 C15       -10.0323    0.3866   61.6952 C.3     1  ZINC000647468483   -0.1400
     16 C16        -8.5273    0.3483   61.3590 C.3     1  ZINC000647468483   -0.1300
     17 C17        -8.4780   -0.1505   59.8934 C.3     1  ZINC000647468483   -0.1300
     18 C18        -9.7021    0.5514   59.2517 C.3     1  ZINC000647468483   -0.0600
     19 H19        -9.4575    1.5809   58.9899 H       1  ZINC000647468483    0.1300
     20 C20       -10.1654   -0.2053   58.0336 C.ar    1  ZINC000647468483   -0.1200
     21 C21       -10.2361   -1.5853   58.0628 C.ar    1  ZINC000647468483   -0.0700
     22 C22       -10.6611   -2.2795   56.9452 C.ar    1  ZINC000647468483   -0.1000
     23 C23       -11.0156   -1.5935   55.7989 C.ar    1  ZINC000647468483   -0.0600
     24 C24       -10.9457   -0.2130   55.7700 C.ar    1  ZINC000647468483   -0.1600
     25 C25       -11.3318    0.5350   54.5200 C.3     1  ZINC000647468483    0.5000
     26 F26       -12.2415   -0.2293   53.7815 F       1  ZINC000647468483   -0.1700
     27 F27       -11.9226    1.7540   54.8696 F       1  ZINC000647468483   -0.1700
     28 F28       -10.1896    0.7746   53.7484 F       1  ZINC000647468483   -0.1700
     29 C29       -10.5249    0.4812   56.8886 C.ar    1  ZINC000647468483   -0.1100
     30 C30       -13.6229    0.5046   61.1351 C.3     1  ZINC000647468483   -0.1200
     31 H31       -14.7943   -2.0551   61.4328 H       1  ZINC000647468483    0.0800
     32 H32       -16.0046   -1.6695   60.1692 H       1  ZINC000647468483    0.0800
     33 H33       -13.3671   -2.2968   59.5978 H       1  ZINC000647468483    0.0700
     34 H34       -14.3703   -1.2459   58.5584 H       1  ZINC000647468483    0.1000
     35 H35       -10.2516    1.2459   62.3289 H       1  ZINC000647468483    0.1000
     36 H36       -10.3259   -0.5342   62.1993 H       1  ZINC000647468483    0.0900
     37 H37        -8.0932    1.3451   61.4375 H       1  ZINC000647468483    0.0800
     38 H38        -8.0070   -0.3482   62.0166 H       1  ZINC000647468483    0.0900
     39 H39        -7.5541    0.1649   59.4088 H       1  ZINC000647468483    0.0900
     40 H40        -8.5875   -1.2342   59.8503 H       1  ZINC000647468483    0.0800
     41 H41        -9.9591   -2.1213   58.9586 H       1  ZINC000647468483    0.1400
     42 H42       -10.7156   -3.3579   56.9679 H       1  ZINC000647468483    0.1500
     43 H43       -11.3468   -2.1358   54.9257 H       1  ZINC000647468483    0.1500
     44 H44       -10.4703    1.5596   56.8661 H       1  ZINC000647468483    0.1400
     45 H45       -13.5276    1.5881   61.0645 H       1  ZINC000647468483    0.0900
     46 H46       -13.1343    0.1356   62.0369 H       1  ZINC000647468483    0.1000
@<TRIPOS>BOND
     1     1     2   ar
     2     2     3   ar
     3     2     4    1
     4     4     5    1
     5     4    30    1
     6     4     6    1
     7     6     7    1
     8     6    31    1
     9     6    32    1
    10     7     8    1
    11     7    33    1
    12     7    34    1
    13     8     9    1
    14     8    10    1
    15     8    30    1
    16    10    11    1
    17    10    12    1
    18    10    13    1
    19    13    14    1
    20    13    18    1
    21    13    15    1
    22    15    16    1
    23    15    35    1
    24    15    36    1
    25    16    17    1
    26    16    37    1
    27    16    38    1
    28    17    18    1
    29    17    39    1
    30    17    40    1
    31    18    19    1
    32    18    20    1
    33    20    29   ar
    34    20    21   ar
    35    21    22   ar
    36    21    41    1
    37    22    23   ar
    38    22    42    1
    39    23    24   ar
    40    23    43    1
    41    24    25    1
    42    24    29   ar
    43    25    26    1
    44    25    27    1
    45    25    28    1
    46    29    44    1
    47    30    45    1
    48    30    46    1
@<TRIPOS>SUBSTRUCTURE
     1 ZINC000647468483        1 TEMP              0 ****  ****    0 ROOT


##########                                Name:    ZINC000066361645
##########                DOCK_Rotatable_Bonds:                   8
##########                         Heavy_Atoms:                  27
##########                    Molecular_Weight:             392.519
##########                DOCK_Rotatable_Bonds:                   8
##########                       Formal_Charge:           0.0100004
##########                     HBond_Acceptors:                   7
##########                        HBond_Donors:                   2
##########                         Heavy_Atoms:                  27
##########                          Grid_Score:          -28.144955
##########                     Grid_vdw_energy:          -26.658583
##########                      Grid_es_energy:           -1.486372
##########           Internal_energy_repulsive:            6.905507

@<TRIPOS>MOLECULE
ZINC000066361645
 55 57 1 0 0
SMALL
USER_CHARGES


@<TRIPOS>ATOM
      1 C1        -13.4286   -0.4800   58.7658 C.3     1  ZINC000066361645   -0.1400
      2 S2        -11.7358   -1.1001   58.9662 S.3     1  ZINC000066361645   -0.1100
      3 C3        -10.8996   -0.4284   57.5683 C.ar    1  ZINC000066361645   -0.1200
      4 C4        -10.9882   -1.0593   56.3366 C.ar    1  ZINC000066361645   -0.1100
      5 C5        -10.3308   -0.5308   55.2351 C.ar    1  ZINC000066361645    0.0500
      6 C6         -9.5835    0.6334   55.3649 C.ar    1  ZINC000066361645    0.0700
      7 C7         -9.4921    1.2652   56.5966 C.ar    1  ZINC000066361645   -0.1100
      8 C8        -10.1521    0.7418   57.6974 C.ar    1  ZINC000066361645    0.1800
      9 N9        -10.0590    1.3822   58.9423 N.am    1  ZINC000066361645   -0.6600
     10 C10        -8.9641    1.2093   59.7089 C.2     1  ZINC000066361645    0.5100
     11 O11        -8.0590    0.4999   59.3226 O.2     1  ZINC000066361645   -0.5000
     12 C12        -8.8641    1.8971   61.0460 C.3     1  ZINC000066361645   -0.1500
     13 C13        -9.5402    1.0357   62.1145 C.3     1  ZINC000066361645    0.1600
     14 H14        -9.5476   -0.0051   61.7910 H       1  ZINC000066361645    0.1000
     15 C15       -10.9782    1.5156   62.3217 C.3     1  ZINC000066361645   -0.1600
     16 N16        -8.8009    1.1505   63.3740 N.am    1  ZINC000066361645   -0.7200
     17 C17        -8.7813    0.1183   64.2405 C.2     1  ZINC000066361645    0.5300
     18 O18        -9.3748   -0.9060   63.9768 O.2     1  ZINC000066361645   -0.5400
     19 C19        -8.0223    0.2370   65.5369 C.3     1  ZINC000066361645   -0.1100
     20 C20        -6.8322    1.1795   65.3466 C.3     1  ZINC000066361645   -0.1100
     21 C21        -6.0616    1.3001   66.6629 C.3     1  ZINC000066361645   -0.1200
     22 C22        -6.9865    1.8588   67.7460 C.3     1  ZINC000066361645   -0.1200
     23 C23        -8.1767    0.9163   67.9363 C.3     1  ZINC000066361645   -0.1200
     24 C24        -8.9473    0.7957   66.6201 C.3     1  ZINC000066361645   -0.1000
     25 O25        -8.9380    1.1702   54.2918 O.3     1  ZINC000066361645   -0.3000
     26 C26        -8.7443    0.3126   53.1620 C.3     1  ZINC000066361645    0.0200
     27 C27       -10.0679   -0.4089   52.8740 C.3     1  ZINC000066361645    0.0200
     28 O28       -10.4266   -1.1667   54.0345 O.3     1  ZINC000066361645   -0.3100
     29 H29       -13.4189    0.6099   58.7674 H       1  ZINC000066361645    0.0900
     30 H30       -13.8374   -0.8384   57.8211 H       1  ZINC000066361645    0.0900
     31 H31       -14.0469   -0.8390   59.5886 H       1  ZINC000066361645    0.1100
     32 H32       -11.5698   -1.9637   56.2347 H       1  ZINC000066361645    0.1400
     33 H33        -8.9089    2.1685   56.6972 H       1  ZINC000066361645    0.1600
     34 H34       -10.7827    1.9494   59.2513 H       1  ZINC000066361645    0.4100
     35 H35        -7.8147    2.0389   61.3041 H       1  ZINC000066361645    0.1000
     36 H36        -9.3596    2.8666   60.9938 H       1  ZINC000066361645    0.1200
     37 H37       -10.9708    2.5565   62.6452 H       1  ZINC000066361645    0.0600
     38 H38       -11.5282    1.4302   61.3846 H       1  ZINC000066361645    0.0700
     39 H39       -11.4598    0.9019   63.0830 H       1  ZINC000066361645    0.0700
     40 H40        -8.3253    1.9693   63.5844 H       1  ZINC000066361645    0.4000
     41 H41        -7.6622   -0.7466   65.8385 H       1  ZINC000066361645    0.1000
     42 H42        -6.1732    0.7815   64.5750 H       1  ZINC000066361645    0.0600
     43 H43        -7.1922    2.1632   65.0451 H       1  ZINC000066361645    0.0700
     44 H44        -5.7015    0.3165   66.9645 H       1  ZINC000066361645    0.0600
     45 H45        -5.2137    1.9716   66.5274 H       1  ZINC000066361645    0.0700
     46 H46        -6.4375    1.9446   68.6838 H       1  ZINC000066361645    0.0600
     47 H47        -7.3466    2.8424   67.4445 H       1  ZINC000066361645    0.0600
     48 H48        -7.8165   -0.0674   68.2379 H       1  ZINC000066361645    0.0600
     49 H49        -8.8356    1.3142   68.7080 H       1  ZINC000066361645    0.0700
     50 H50        -9.3073    1.7793   66.3185 H       1  ZINC000066361645    0.0700
     51 H51        -9.7951    0.1242   66.7556 H       1  ZINC000066361645    0.0700
     52 H52        -8.4532    0.9062   52.2954 H       1  ZINC000066361645    0.1300
     53 H53        -7.9677   -0.4191   53.3848 H       1  ZINC000066361645    0.0800
     54 H54       -10.8461    0.3230   52.6579 H       1  ZINC000066361645    0.0800
     55 H55        -9.9443   -1.0775   52.0220 H       1  ZINC000066361645    0.1200
@<TRIPOS>BOND
     1     1     2    1
     2     1    29    1
     3     1    30    1
     4     1    31    1
     5     2     3    1
     6     3     8   ar
     7     3     4   ar
     8     4     5   ar
     9     4    32    1
    10     5    28    1
    11     5     6   ar
    12     6     7   ar
    13     6    25    1
    14     7     8   ar
    15     7    33    1
    16     8     9    1
    17     9    10   am
    18     9    34    1
    19    10    11    2
    20    10    12    1
    21    12    13    1
    22    12    35    1
    23    12    36    1
    24    13    14    1
    25    13    15    1
    26    13    16    1
    27    15    37    1
    28    15    38    1
    29    15    39    1
    30    16    17   am
    31    16    40    1
    32    17    18    2
    33    17    19    1
    34    19    24    1
    35    19    20    1
    36    19    41    1
    37    20    21    1
    38    20    42    1
    39    20    43    1
    40    21    22    1
    41    21    44    1
    42    21    45    1
    43    22    23    1
    44    22    46    1
    45    22    47    1
    46    23    24    1
    47    23    48    1
    48    23    49    1
    49    24    50    1
    50    24    51    1
    51    25    26    1
    52    26    27    1
    53    26    52    1
    54    26    53    1
    55    27    28    1
    56    27    54    1
    57    27    55    1
@<TRIPOS>SUBSTRUCTURE
     1 ZINC000066361645        1 TEMP              0 ****  ****    0 ROOT


##########                                Name:    ZINC000549381790
##########                DOCK_Rotatable_Bonds:                   7
##########                         Heavy_Atoms:                  23
##########                    Molecular_Weight:             337.846
##########                DOCK_Rotatable_Bonds:                   7
##########                       Formal_Charge:           0.0300006
##########                     HBond_Acceptors:                   5
##########                        HBond_Donors:                   0
##########                         Heavy_Atoms:                  23
##########                          Grid_Score:          -28.139322
##########                     Grid_vdw_energy:          -27.827660
##########                      Grid_es_energy:           -0.311663
##########           Internal_energy_repulsive:           92.141190

@<TRIPOS>MOLECULE
ZINC000549381790
 47 49 1 0 0
SMALL
USER_CHARGES


@<TRIPOS>ATOM
      1 C1          2.6115    4.2286   51.8324 C.3     1  ZINC000549381790   -0.1400
      2 C2          2.6378    3.2711   50.6394 C.3     1  ZINC000549381790    0.1500
      3 H3          2.9862    3.8013   49.7530 H       1  ZINC000549381790    0.0700
      4 C4          3.5791    2.1007   50.9408 C.3     1  ZINC000549381790   -0.1300
      5 C5          3.4950    1.0780   49.8054 C.3     1  ZINC000549381790   -0.1200
      6 C6          2.0668    0.5368   49.7089 C.3     1  ZINC000549381790   -0.1400
      7 C7          1.1084    1.6894   49.3935 C.3     1  ZINC000549381790    0.1000
      8 N8          1.2869    2.7456   50.3997 N.am    1  ZINC000549381790   -0.6100
      9 C9          0.2324    3.2191   51.0927 C.2     1  ZINC000549381790    0.5200
     10 O10         0.3929    4.0908   51.9206 O.2     1  ZINC000549381790   -0.5000
     11 C11        -1.1460    2.6654   50.8390 C.3     1  ZINC000549381790    0.0400
     12 O12        -2.1209    3.6781   51.0964 O.3     1  ZINC000549381790   -0.2800
     13 C13        -3.3975    3.2643   51.3163 C.ar    1  ZINC000549381790    0.1100
     14 C14        -4.2310    3.9986   52.1465 C.ar    1  ZINC000549381790   -0.1700
     15 C15        -5.5284    3.5790   52.3700 C.ar    1  ZINC000549381790   -0.1600
     16 C16        -5.9973    2.4231   51.7647 C.ar    1  ZINC000549381790    0.1100
     17 O17        -7.2743    2.0102   51.9848 O.3     1  ZINC000549381790   -0.3000
     18 C18        -7.5347    1.3356   53.2173 C.3     1  ZINC000549381790    0.0900
     19 C19        -9.0294    1.0271   53.3241 C.3     1  ZINC000549381790   -0.1600
     20 C20        -9.4626   -0.4318   53.1667 C.3     1  ZINC000549381790   -0.1700
     21 C21        -9.5017    0.2335   54.5439 C.3     1  ZINC000549381790   -0.1700
     22 C22        -5.1633    1.6877   50.9336 C.ar    1  ZINC000549381790   -0.0300
     23 Cl23       -5.7501    0.2406   50.1750 Cl      1  ZINC000549381790   -0.0400
     24 C24        -3.8676    2.1109   50.7057 C.ar    1  ZINC000549381790   -0.1000
     25 H25         2.1692    3.7256   52.6923 H       1  ZINC000549381790    0.0600
     26 H26         3.6290    4.5352   52.0747 H       1  ZINC000549381790    0.0500
     27 H27         2.0177    5.1072   51.5802 H       1  ZINC000549381790    0.0800
     28 H28         4.6018    2.4686   51.0242 H       1  ZINC000549381790    0.0800
     29 H29         3.2843    1.6288   51.8780 H       1  ZINC000549381790    0.0700
     30 H30         3.7662    1.5570   48.8645 H       1  ZINC000549381790    0.0700
     31 H31         4.1822    0.2560   50.0053 H       1  ZINC000549381790    0.0700
     32 H32         2.0130   -0.2085   48.9153 H       1  ZINC000549381790    0.0800
     33 H33         1.7861    0.0796   50.6577 H       1  ZINC000549381790    0.0700
     34 H34         1.3306    2.0890   48.4040 H       1  ZINC000549381790    0.0800
     35 H35         0.0804    1.3280   49.4214 H       1  ZINC000549381790    0.0800
     36 H36        -1.2226    2.3430   49.8006 H       1  ZINC000549381790    0.0900
     37 H37        -1.3229    1.8150   51.4974 H       1  ZINC000549381790    0.0900
     38 H38        -3.8659    4.8987   52.6187 H       1  ZINC000549381790    0.1400
     39 H39        -6.1771    4.1512   53.0166 H       1  ZINC000549381790    0.1400
     40 H40        -6.9685    0.4047   53.2488 H       1  ZINC000549381790    0.0700
     41 H41        -7.2346    1.9717   54.0501 H       1  ZINC000549381790    0.0700
     42 H42        -9.6970    1.7955   52.9343 H       1  ZINC000549381790    0.1200
     43 H43       -10.4154   -0.6235   52.6732 H       1  ZINC000549381790    0.1000
     44 H44        -8.6827   -1.1718   52.9872 H       1  ZINC000549381790    0.1000
     45 H45        -8.7475   -0.0688   55.2705 H       1  ZINC000549381790    0.1000
     46 H46       -10.4801    0.4796   54.9564 H       1  ZINC000549381790    0.1000
     47 H47        -3.2185    1.5391   50.0593 H       1  ZINC000549381790    0.1500
@<TRIPOS>BOND
     1     1     2    1
     2     1    25    1
     3     1    26    1
     4     1    27    1
     5     2     3    1
     6     2     8    1
     7     2     4    1
     8     4     5    1
     9     4    28    1
    10     4    29    1
    11     5     6    1
    12     5    30    1
    13     5    31    1
    14     6     7    1
    15     6    32    1
    16     6    33    1
    17     7     8    1
    18     7    34    1
    19     7    35    1
    20     8     9   am
    21     9    10    2
    22     9    11    1
    23    11    12    1
    24    11    36    1
    25    11    37    1
    26    12    13    1
    27    13    24   ar
    28    13    14   ar
    29    14    15   ar
    30    14    38    1
    31    15    16   ar
    32    15    39    1
    33    16    17    1
    34    16    22   ar
    35    17    18    1
    36    18    19    1
    37    18    40    1
    38    18    41    1
    39    19    21    1
    40    19    20    1
    41    19    42    1
    42    20    21    1
    43    20    43    1
    44    20    44    1
    45    21    45    1
    46    21    46    1
    47    22    23    1
    48    22    24   ar
    49    24    47    1
@<TRIPOS>SUBSTRUCTURE
     1 ZINC000549381790        1 TEMP              0 ****  ****    0 ROOT


##########                                Name:    ZINC000970996691
##########                DOCK_Rotatable_Bonds:                   7
##########                         Heavy_Atoms:                  24
##########                    Molecular_Weight:             334.462
##########                DOCK_Rotatable_Bonds:                   7
##########                       Formal_Charge:          -0.0199999
##########                     HBond_Acceptors:                   6
##########                        HBond_Donors:                   0
##########                         Heavy_Atoms:                  24
##########                          Grid_Score:          -28.137615
##########                     Grid_vdw_energy:          -28.552916
##########                      Grid_es_energy:            0.415300
##########           Internal_energy_repulsive:           10.867883

@<TRIPOS>MOLECULE
ZINC000970996691
 54 56 1 0 0
SMALL
USER_CHARGES


@<TRIPOS>ATOM
      1 C1          0.3002   -2.2856   61.7050 C.3     1  ZINC000970996691   -0.1500
      2 C2          0.1822   -0.9882   60.9030 C.3     1  ZINC000970996691   -0.1200
      3 C3          1.3308   -0.0499   61.2790 C.3     1  ZINC000970996691   -0.0300
      4 C4          1.2556    1.1983   60.4379 C.2     1  ZINC000970996691    0.1800
      5 N5          0.1689    1.7486   59.9525 N.2     1  ZINC000970996691   -0.4700
      6 C6          0.5842    2.8331   59.2741 C.2     1  ZINC000970996691    0.1800
      7 C7         -0.2905    3.8081   58.5289 C.3     1  ZINC000970996691    0.1500
      8 N8         -1.0141    3.1014   57.4636 N.3     1  ZINC000970996691   -0.5200
      9 C9         -2.3697    2.7395   57.8985 C.3     1  ZINC000970996691    0.0200
     10 C10        -1.0524    3.9022   56.2325 C.3     1  ZINC000970996691    0.0700
     11 H11        -1.4838    4.8851   56.4216 H       1  ZINC000970996691    0.0600
     12 C12         0.3614    4.0266   55.6058 C.3     1  ZINC000970996691   -0.1300
     13 C13         0.0579    4.2442   54.1084 C.3     1  ZINC000970996691    0.1000
     14 N14        -1.2908    3.7166   53.8554 N.am    1  ZINC000970996691   -0.6200
     15 C15        -1.9323    3.7358   52.6701 C.2     1  ZINC000970996691    0.5300
     16 O16        -1.3938    4.2191   51.6968 O.2     1  ZINC000970996691   -0.5300
     17 C17        -3.3188    3.1568   52.5544 C.3     1  ZINC000970996691   -0.1000
     18 C18        -4.3503    4.2841   52.6314 C.3     1  ZINC000970996691   -0.1100
     19 C19        -5.7580    3.6961   52.5139 C.3     1  ZINC000970996691   -0.1200
     20 C20        -5.8967    2.9687   51.1751 C.3     1  ZINC000970996691   -0.1200
     21 C21        -4.8651    1.8413   51.0980 C.3     1  ZINC000970996691   -0.1200
     22 C22        -3.4575    2.4292   51.2155 C.3     1  ZINC000970996691   -0.1000
     23 C23        -1.8260    3.1623   55.1128 C.3     1  ZINC000970996691    0.1200
     24 N24         1.8783    2.8861   59.3796 N.2     1  ZINC000970996691   -0.3800
     25 O25         2.2832    1.9592   60.0491 O.3     1  ZINC000970996691    0.0800
     26 H26         1.2515   -2.7673   61.4792 H       1  ZINC000970996691    0.0600
     27 H27         0.2511   -2.0600   62.7703 H       1  ZINC000970996691    0.0600
     28 H28        -0.5180   -2.9541   61.4372 H       1  ZINC000970996691    0.0600
     29 H29         0.2313   -1.2138   59.8376 H       1  ZINC000970996691    0.0700
     30 H30        -0.7692   -0.5065   61.1288 H       1  ZINC000970996691    0.0700
     31 H31         1.2518    0.2168   62.3329 H       1  ZINC000970996691    0.1100
     32 H32         2.2823   -0.5510   61.1013 H       1  ZINC000970996691    0.1000
     33 H33        -1.0056    4.2556   59.2190 H       1  ZINC000970996691    0.0700
     34 H34         0.3293    4.5902   58.0901 H       1  ZINC000970996691    0.1100
     35 H35        -2.9220    3.6433   58.1562 H       1  ZINC000970996691    0.0300
     36 H36        -2.8832    2.2177   57.0910 H       1  ZINC000970996691    0.0800
     37 H37        -2.3098    2.0891   58.7712 H       1  ZINC000970996691    0.0700
     38 H38         0.8929    4.8833   56.0200 H       1  ZINC000970996691    0.0800
     39 H39         0.9313    3.1093   55.7544 H       1  ZINC000970996691    0.0900
     40 H40         0.0896    5.3083   53.8746 H       1  ZINC000970996691    0.0700
     41 H41         0.7861    3.7071   53.5006 H       1  ZINC000970996691    0.0700
     42 H42        -3.4879    2.4532   53.3695 H       1  ZINC000970996691    0.0900
     43 H43        -4.2516    4.8024   53.5853 H       1  ZINC000970996691    0.0700
     44 H44        -4.1813    4.9877   51.8163 H       1  ZINC000970996691    0.0700
     45 H45        -5.9271    2.9925   53.3289 H       1  ZINC000970996691    0.0600
     46 H46        -6.4929    4.4993   52.5688 H       1  ZINC000970996691    0.0700
     47 H47        -6.8995    2.5498   51.0914 H       1  ZINC000970996691    0.0600
     48 H48        -5.7275    3.6723   50.3600 H       1  ZINC000970996691    0.0600
     49 H49        -5.0342    1.1377   51.9131 H       1  ZINC000970996691    0.0600
     50 H50        -4.9639    1.3230   50.1442 H       1  ZINC000970996691    0.0700
     51 H51        -3.2883    3.1329   50.4004 H       1  ZINC000970996691    0.0800
     52 H52        -2.7225    1.6261   51.1606 H       1  ZINC000970996691    0.0600
     53 H53        -1.6360    2.0903   55.1660 H       1  ZINC000970996691    0.0800
     54 H54        -2.8944    3.3635   55.1917 H       1  ZINC000970996691    0.0800
@<TRIPOS>BOND
     1     1     2    1
     2     1    26    1
     3     1    27    1
     4     1    28    1
     5     2     3    1
     6     2    29    1
     7     2    30    1
     8     3     4    1
     9     3    31    1
    10     3    32    1
    11     4    25    1
    12     4     5    2
    13     5     6    1
    14     6     7    1
    15     6    24    2
    16     7     8    1
    17     7    33    1
    18     7    34    1
    19     8     9    1
    20     8    10    1
    21     9    35    1
    22     9    36    1
    23     9    37    1
    24    10    11    1
    25    10    23    1
    26    10    12    1
    27    12    13    1
    28    12    38    1
    29    12    39    1
    30    13    14    1
    31    13    40    1
    32    13    41    1
    33    14    15   am
    34    14    23    1
    35    15    16    2
    36    15    17    1
    37    17    22    1
    38    17    18    1
    39    17    42    1
    40    18    19    1
    41    18    43    1
    42    18    44    1
    43    19    20    1
    44    19    45    1
    45    19    46    1
    46    20    21    1
    47    20    47    1
    48    20    48    1
    49    21    22    1
    50    21    49    1
    51    21    50    1
    52    22    51    1
    53    22    52    1
    54    23    53    1
    55    23    54    1
    56    24    25    1
@<TRIPOS>SUBSTRUCTURE
     1 ZINC000970996691        1 TEMP              0 ****  ****    0 ROOT


##########                                Name:    ZINC000811540126
##########                DOCK_Rotatable_Bonds:                   7
##########                         Heavy_Atoms:                  21
##########                    Molecular_Weight:             397.212
##########                DOCK_Rotatable_Bonds:                   7
##########                       Formal_Charge:           0.0100001
##########                     HBond_Acceptors:                   4
##########                        HBond_Donors:                   3
##########                         Heavy_Atoms:                  21
##########                          Grid_Score:          -28.133831
##########                     Grid_vdw_energy:          -26.265198
##########                      Grid_es_energy:           -1.868633
##########           Internal_energy_repulsive:           13.019464

@<TRIPOS>MOLECULE
ZINC000811540126
 37 38 1 0 0
SMALL
USER_CHARGES


@<TRIPOS>ATOM
      1 C1         -8.0404    4.0062   57.0403 C.3     1  ZINC000811540126   -0.1600
      2 C2         -8.4042    2.5201   57.0214 C.3     1  ZINC000811540126    0.1200
      3 H3         -9.4839    2.4117   56.9183 H       1  ZINC000811540126    0.1000
      4 N4         -7.7378    1.8685   55.8911 N.am    1  ZINC000811540126   -0.7200
      5 C5         -8.1689    2.0931   54.6340 C.2     1  ZINC000811540126    0.5700
      6 O6         -9.1099    2.8378   54.4380 O.2     1  ZINC000811540126   -0.5100
      7 C7         -7.4990    1.4356   53.4959 C.ar    1  ZINC000811540126   -0.1600
      8 C8         -6.4302    2.0631   52.8519 C.ar    1  ZINC000811540126   -0.0400
      9 C9         -5.8085    1.4432   51.7889 C.ar    1  ZINC000811540126   -0.1200
     10 I10        -4.2056    2.3858   50.8239 I       1  ZINC000811540126   -0.0300
     11 C11        -6.2388    0.1993   51.3562 C.ar    1  ZINC000811540126   -0.0400
     12 C12        -7.2946   -0.4318   51.9841 C.ar    1  ZINC000811540126   -0.1500
     13 C13        -7.9277    0.1747   53.0583 C.ar    1  ZINC000811540126    0.1900
     14 O14        -8.9646   -0.4444   53.6762 O.3     1  ZINC000811540126   -0.4700
     15 C15        -7.9484    1.8669   58.3277 C.3     1  ZINC000811540126    0.1400
     16 H16        -7.9866    2.6002   59.1333 H       1  ZINC000811540126    0.1300
     17 O17        -6.6093    1.3905   58.1802 O.3     1  ZINC000811540126   -0.5400
     18 C18        -8.8591    0.7119   58.6563 C.ar    1  ZINC000811540126   -0.1200
     19 C19        -9.5840    0.0963   57.6532 C.ar    1  ZINC000811540126   -0.1100
     20 C20       -10.4193   -0.9631   57.9545 C.ar    1  ZINC000811540126   -0.1100
     21 C21       -10.5294   -1.4071   59.2591 C.ar    1  ZINC000811540126   -0.1200
     22 C22        -9.8038   -0.7919   60.2620 C.ar    1  ZINC000811540126   -0.1100
     23 C23        -8.9652    0.2647   59.9599 C.ar    1  ZINC000811540126   -0.1100
     24 H24        -8.3651    4.4716   56.1096 H       1  ZINC000811540126    0.0600
     25 H25        -8.5361    4.4909   57.8812 H       1  ZINC000811540126    0.0700
     26 H26        -6.9607    4.1146   57.1434 H       1  ZINC000811540126    0.0700
     27 H27        -6.9863    1.2754   56.0474 H       1  ZINC000811540126    0.3900
     28 H28        -6.0916    3.0328   53.1859 H       1  ZINC000811540126    0.1300
     29 H29        -5.7460   -0.2795   50.5230 H       1  ZINC000811540126    0.1400
     30 H30        -7.6246   -1.4012   51.6409 H       1  ZINC000811540126    0.1500
     31 H31        -9.3280   -1.1916   53.1814 H       1  ZINC000811540126    0.4000
     32 H32        -5.9427    2.0907   58.1606 H       1  ZINC000811540126    0.3700
     33 H33        -9.4980    0.4431   56.6340 H       1  ZINC000811540126    0.1100
     34 H34       -10.9862   -1.4437   57.1709 H       1  ZINC000811540126    0.1200
     35 H35       -11.1825   -2.2343   59.4946 H       1  ZINC000811540126    0.1200
     36 H36        -9.8901   -1.1386   61.2813 H       1  ZINC000811540126    0.1300
     37 H37        -8.3983    0.7453   60.7436 H       1  ZINC000811540126    0.1200
@<TRIPOS>BOND
     1     1     2    1
     2     1    24    1
     3     1    25    1
     4     1    26    1
     5     2     3    1
     6     2     4    1
     7     2    15    1
     8     4     5   am
     9     4    27    1
    10     5     6    2
    11     5     7    1
    12     7    13   ar
    13     7     8   ar
    14     8     9   ar
    15     8    28    1
    16     9    10    1
    17     9    11   ar
    18    11    12   ar
    19    11    29    1
    20    12    13   ar
    21    12    30    1
    22    13    14    1
    23    14    31    1
    24    15    16    1
    25    15    17    1
    26    15    18    1
    27    17    32    1
    28    18    23   ar
    29    18    19   ar
    30    19    20   ar
    31    19    33    1
    32    20    21   ar
    33    20    34    1
    34    21    22   ar
    35    21    35    1
    36    22    23   ar
    37    22    36    1
    38    23    37    1
@<TRIPOS>SUBSTRUCTURE
     1 ZINC000811540126        1 TEMP              0 ****  ****    0 ROOT


##########                                Name:    ZINC001015955459
##########                DOCK_Rotatable_Bonds:                   6
##########                         Heavy_Atoms:                  24
##########                    Molecular_Weight:             347.844
##########                DOCK_Rotatable_Bonds:                   6
##########                       Formal_Charge:          -0.0200002
##########                     HBond_Acceptors:                   6
##########                        HBond_Donors:                   1
##########                         Heavy_Atoms:                  24
##########                          Grid_Score:          -28.116482
##########                     Grid_vdw_energy:          -28.603861
##########                      Grid_es_energy:            0.487380
##########           Internal_energy_repulsive:           10.410121

@<TRIPOS>MOLECULE
ZINC001015955459
 46 48 1 0 0
SMALL
USER_CHARGES


@<TRIPOS>ATOM
      1 C1        -12.7978    0.2373   56.7094 C.3     1  ZINC001015955459   -0.1500
      2 C2        -11.7032   -0.1229   55.7029 C.3     1  ZINC001015955459   -0.0300
      3 C3        -11.7792   -1.6165   55.3795 C.3     1  ZINC001015955459   -0.1500
      4 C4        -11.9000    0.6750   54.4398 C.2     1  ZINC001015955459    0.0600
      5 C5        -10.9326    1.0468   53.5575 C.2     1  ZINC001015955459   -0.0800
      6 C6         -9.4932    0.7449   53.6576 C.2     1  ZINC001015955459    0.6100
      7 O7         -9.0746    0.0783   54.5848 O.2     1  ZINC001015955459   -0.5300
      8 N8         -8.6409    1.2074   52.7216 N.am    1  ZINC001015955459   -0.7100
      9 C9         -7.2107    0.9059   52.8200 C.3     1  ZINC001015955459    0.1400
     10 H10        -6.9275    0.7532   53.8615 H       1  ZINC001015955459    0.1000
     11 C11        -6.8676   -0.3435   51.9828 C.3     1  ZINC001015955459   -0.1300
     12 C12        -5.8546    0.1473   50.9263 C.3     1  ZINC001015955459    0.0200
     13 N13        -5.2420    1.3587   51.5296 N.3     1  ZINC001015955459   -0.4900
     14 C14        -4.6423    2.2150   50.4976 C.3     1  ZINC001015955459    0.0800
     15 C15        -3.2827    2.6763   50.9554 C.ar    1  ZINC001015955459   -0.1100
     16 C16        -3.1743    3.7100   51.8666 C.ar    1  ZINC001015955459   -0.1100
     17 C17        -1.9273    4.1305   52.2907 C.ar    1  ZINC001015955459   -0.1000
     18 C18        -0.7882    3.5246   51.7957 C.ar    1  ZINC001015955459   -0.1100
     19 C19        -0.8959    2.4933   50.8794 C.ar    1  ZINC001015955459   -0.0300
     20 Cl20        0.5347    1.7321   50.2567 Cl      1  ZINC001015955459   -0.0700
     21 C21        -2.1439    2.0695   50.4595 C.ar    1  ZINC001015955459   -0.1000
     22 C22        -6.3779    2.0483   52.1997 C.3     1  ZINC001015955459    0.0100
     23 N23       -11.5433    1.7545   52.5689 N.2     1  ZINC001015955459   -0.4600
     24 C24       -12.8162    1.8059   52.8250 C.2     1  ZINC001015955459    0.1800
     25 O25       -13.0630    1.1542   53.9702 O.3     1  ZINC001015955459   -0.1900
     26 H26       -13.7739    0.0071   56.2825 H       1  ZINC001015955459    0.0600
     27 H27       -12.6554   -0.3399   57.6230 H       1  ZINC001015955459    0.0700
     28 H28       -12.7436    1.3013   56.9397 H       1  ZINC001015955459    0.0600
     29 H29       -10.7270    0.1072   56.1297 H       1  ZINC001015955459    0.1300
     30 H30       -10.9994   -1.8731   54.6625 H       1  ZINC001015955459    0.0600
     31 H31       -11.6369   -2.1937   56.2932 H       1  ZINC001015955459    0.0700
     32 H32       -12.7553   -1.8467   54.9528 H       1  ZINC001015955459    0.0600
     33 H33        -8.9746    1.7400   51.9827 H       1  ZINC001015955459    0.4100
     34 H34        -6.4161   -1.1094   52.6133 H       1  ZINC001015955459    0.0800
     35 H35        -7.7635   -0.7324   51.4986 H       1  ZINC001015955459    0.0700
     36 H36        -5.0949   -0.6133   50.7460 H       1  ZINC001015955459    0.0900
     37 H37        -6.3664    0.4020   49.9983 H       1  ZINC001015955459    0.0500
     38 H38        -4.5414    1.6505   49.5706 H       1  ZINC001015955459    0.0900
     39 H39        -5.2817    3.0814   50.3277 H       1  ZINC001015955459    0.0900
     40 H40        -4.0641    4.1868   52.2503 H       1  ZINC001015955459    0.1300
     41 H41        -1.8434    4.9354   53.0058 H       1  ZINC001015955459    0.1300
     42 H42         0.1859    3.8562   52.1237 H       1  ZINC001015955459    0.1300
     43 H43        -2.2286    1.2648   49.7440 H       1  ZINC001015955459    0.1300
     44 H44        -6.9721    2.5996   51.4710 H       1  ZINC001015955459    0.0700
     45 H45        -6.0122    2.7179   52.9782 H       1  ZINC001015955459    0.0900
     46 H46       -13.5575    2.2998   52.2145 H       1  ZINC001015955459    0.2600
@<TRIPOS>BOND
     1     1     2    1
     2     1    26    1
     3     1    27    1
     4     1    28    1
     5     2     3    1
     6     2     4    1
     7     2    29    1
     8     3    30    1
     9     3    31    1
    10     3    32    1
    11     4    25    1
    12     4     5    2
    13     5     6    1
    14     5    23    1
    15     6     7    2
    16     6     8   am
    17     8     9    1
    18     8    33    1
    19     9    10    1
    20     9    22    1
    21     9    11    1
    22    11    12    1
    23    11    34    1
    24    11    35    1
    25    12    13    1
    26    12    36    1
    27    12    37    1
    28    13    14    1
    29    13    22    1
    30    14    15    1
    31    14    38    1
    32    14    39    1
    33    15    21   ar
    34    15    16   ar
    35    16    17   ar
    36    16    40    1
    37    17    18   ar
    38    17    41    1
    39    18    19   ar
    40    18    42    1
    41    19    20    1
    42    19    21   ar
    43    21    43    1
    44    22    44    1
    45    22    45    1
    46    23    24    2
    47    24    25    1
    48    24    46    1
@<TRIPOS>SUBSTRUCTURE
     1 ZINC001015955459        1 TEMP              0 ****  ****    0 ROOT


##########                                Name:    ZINC001085711660
##########                DOCK_Rotatable_Bonds:                   8
##########                         Heavy_Atoms:                  25
##########                    Molecular_Weight:             347.414
##########                DOCK_Rotatable_Bonds:                   8
##########                       Formal_Charge:         -0.00999993
##########                     HBond_Acceptors:                   7
##########                        HBond_Donors:                   0
##########                         Heavy_Atoms:                  25
##########                          Grid_Score:          -28.098431
##########                     Grid_vdw_energy:          -27.439901
##########                      Grid_es_energy:           -0.658529
##########           Internal_energy_repulsive:           12.817183

@<TRIPOS>MOLECULE
ZINC001085711660
 50 52 1 0 0
SMALL
USER_CHARGES


@<TRIPOS>ATOM
      1 C1         -8.1814    0.0836   62.1670 C.3     1  ZINC001085711660    0.0300
      2 O2         -8.2178    0.6848   60.8711 O.3     1  ZINC001085711660   -0.3800
      3 C3         -8.0220   -0.2371   59.7969 C.3     1  ZINC001085711660    0.1400
      4 C4         -8.1768    0.4831   58.4823 C.2     1  ZINC001085711660    0.0100
      5 C5         -9.3221    0.5886   57.7729 C.2     1  ZINC001085711660   -0.1900
      6 C6         -9.0274    1.3348   56.6211 C.2     1  ZINC001085711660   -0.1200
      7 C7         -7.7006    1.6508   56.6869 C.2     1  ZINC001085711660   -0.0700
      8 C8         -6.9493    2.4264   55.6947 C.2     1  ZINC001085711660    0.6000
      9 O9         -6.8860    2.0412   54.5420 O.2     1  ZINC001085711660   -0.5200
     10 N10        -6.3288    3.5660   56.0594 N.am    1  ZINC001085711660   -0.6000
     11 C11        -6.4048    4.0298   57.4470 C.3     1  ZINC001085711660    0.0700
     12 C12        -5.5782    4.3408   55.0681 C.3     1  ZINC001085711660    0.1300
     13 C13        -4.0912    3.9955   55.1705 C.3     1  ZINC001085711660    0.0000
     14 H14        -3.9175    2.9435   55.3970 H       1  ZINC001085711660    0.1000
     15 C15        -3.3016    4.9538   56.0732 C.3     1  ZINC001085711660   -0.1400
     16 C16        -2.2180    4.7998   54.9967 C.3     1  ZINC001085711660    0.0100
     17 N17        -3.2931    4.4914   54.0337 N.3     1  ZINC001085711660   -0.4500
     18 C18        -2.9022    3.3905   53.1431 C.3     1  ZINC001085711660    0.1500
     19 H19        -2.8084    2.4712   53.7212 H       1  ZINC001085711660    0.1000
     20 C20        -1.5603    3.7186   52.4853 C.3     1  ZINC001085711660   -0.1900
     21 C21        -3.9527    3.2090   52.0779 C.2     1  ZINC001085711660    0.2000
     22 N22        -3.9748    2.2574   51.1886 N.2     1  ZINC001085711660   -0.4700
     23 C23        -5.0592    2.4199   50.4102 C.2     1  ZINC001085711660   -0.0400
     24 C24        -5.7144    3.5086   50.8458 C.2     1  ZINC001085711660   -0.0500
     25 C25        -6.9890    4.0747   50.2747 C.3     1  ZINC001085711660   -0.0700
     26 O26        -5.0206    3.9963   51.8930 O.3     1  ZINC001085711660   -0.2000
     27 O27        -7.2033    1.1288   57.8273 O.3     1  ZINC001085711660   -0.1500
     28 H28        -8.9673   -0.6680   62.2410 H       1  ZINC001085711660    0.0500
     29 H29        -7.2112   -0.3887   62.3213 H       1  ZINC001085711660    0.0500
     30 H30        -8.3378    0.8490   62.9271 H       1  ZINC001085711660    0.0900
     31 H31        -7.0211   -0.6635   59.8619 H       1  ZINC001085711660    0.0900
     32 H32        -8.7618   -1.0349   59.8635 H       1  ZINC001085711660    0.0700
     33 H33       -10.2835    0.1763   58.0416 H       1  ZINC001085711660    0.1600
     34 H34        -9.7165    1.6064   55.8352 H       1  ZINC001085711660    0.1600
     35 H35        -5.6420    3.5262   58.0407 H       1  ZINC001085711660    0.0600
     36 H36        -6.2388    5.1064   57.4797 H       1  ZINC001085711660    0.0900
     37 H37        -7.3905    3.8016   57.8527 H       1  ZINC001085711660    0.0800
     38 H38        -5.9394    4.0989   54.0686 H       1  ZINC001085711660    0.0900
     39 H39        -5.7179    5.4052   55.2573 H       1  ZINC001085711660    0.0900
     40 H40        -3.7257    5.9557   56.1395 H       1  ZINC001085711660    0.1000
     41 H41        -3.0312    4.5336   57.0419 H       1  ZINC001085711660    0.0800
     42 H42        -1.6900    5.7275   54.7764 H       1  ZINC001085711660    0.0900
     43 H43        -1.5436    3.9625   55.1761 H       1  ZINC001085711660    0.0800
     44 H44        -1.6227    4.6916   51.9982 H       1  ZINC001085711660    0.0800
     45 H45        -0.7793    3.7421   53.2453 H       1  ZINC001085711660    0.0800
     46 H46        -1.3230    2.9557   51.7439 H       1  ZINC001085711660    0.0700
     47 H47        -5.3507    1.7889   49.5835 H       1  ZINC001085711660    0.1800
     48 H48        -7.8443    3.6244   50.7784 H       1  ZINC001085711660    0.0800
     49 H49        -7.0062    5.1543   50.4244 H       1  ZINC001085711660    0.0800
     50 H50        -7.0383    3.8550   49.2083 H       1  ZINC001085711660    0.0900
@<TRIPOS>BOND
     1     1     2    1
     2     1    28    1
     3     1    29    1
     4     1    30    1
     5     2     3    1
     6     3     4    1
     7     3    31    1
     8     3    32    1
     9     4    27    1
    10     4     5    2
    11     5     6    1
    12     5    33    1
    13     6     7    2
    14     6    34    1
    15     7     8    1
    16     7    27    1
    17     8     9    2
    18     8    10   am
    19    10    11    1
    20    10    12    1
    21    11    35    1
    22    11    36    1
    23    11    37    1
    24    12    13    1
    25    12    38    1
    26    12    39    1
    27    13    14    1
    28    13    17    1
    29    13    15    1
    30    15    16    1
    31    15    40    1
    32    15    41    1
    33    16    17    1
    34    16    42    1
    35    16    43    1
    36    17    18    1
    37    18    19    1
    38    18    20    1
    39    18    21    1
    40    20    44    1
    41    20    45    1
    42    20    46    1
    43    21    26    1
    44    21    22    2
    45    22    23    1
    46    23    24    2
    47    23    47    1
    48    24    25    1
    49    24    26    1
    50    25    48    1
    51    25    49    1
    52    25    50    1
@<TRIPOS>SUBSTRUCTURE
     1 ZINC001085711660        1 TEMP              0 ****  ****    0 ROOT


##########                                Name:    ZINC000416583757
##########                DOCK_Rotatable_Bonds:                   7
##########                         Heavy_Atoms:                  20
##########                    Molecular_Weight:             380.693
##########                DOCK_Rotatable_Bonds:                   7
##########                       Formal_Charge:         1.04308e-07
##########                     HBond_Acceptors:                   7
##########                        HBond_Donors:                   1
##########                         Heavy_Atoms:                  20
##########                          Grid_Score:          -28.084776
##########                     Grid_vdw_energy:          -25.681744
##########                      Grid_es_energy:           -2.403032
##########           Internal_energy_repulsive:            8.585318

@<TRIPOS>MOLECULE
ZINC000416583757
 35 35 1 0 0
SMALL
USER_CHARGES


@<TRIPOS>ATOM
      1 C1          0.3100    1.5132   59.7139 C.3     1  ZINC000416583757   -0.1500
      2 C2         -0.8152    2.3169   59.0593 C.3     1  ZINC000416583757   -0.0200
      3 H3         -1.7610    1.7911   59.1902 H       1  ZINC000416583757    0.1200
      4 C4         -0.9006    3.6445   59.6895 C.1     1  ZINC000416583757    0.2100
      5 N5         -0.9665    4.6690   60.1758 N.1     1  ZINC000416583757   -0.4200
      6 C6         -0.5243    2.4790   57.5660 C.3     1  ZINC000416583757    0.1300
      7 N7         -1.5512    3.3288   56.9580 N.am    1  ZINC000416583757   -1.0100
      8 C8         -2.9436    3.2266   57.4018 C.3     1  ZINC000416583757    0.0800
      9 S9         -1.1381    4.4047   55.7689 S.o2    1  ZINC000416583757    2.7800
     10 O10        -2.3555    4.9571   55.2869 O.2     1  ZINC000416583757   -0.9700
     11 O11        -0.0797    5.1950   56.2928 O.2     1  ZINC000416583757   -0.9700
     12 N12        -0.4940    3.5303   54.5186 N.am    1  ZINC000416583757   -1.1300
     13 C13        -0.0308    4.2141   53.3088 C.3     1  ZINC000416583757    0.1600
     14 C14        -0.5437    3.4866   52.0928 C.ar    1  ZINC000416583757   -0.0800
     15 C15         0.3393    3.0632   51.1176 C.ar    1  ZINC000416583757   -0.0800
     16 C16        -0.1313    2.3946   50.0012 C.ar    1  ZINC000416583757   -0.0300
     17 Cl17        0.9779    1.8622   48.7764 Cl      1  ZINC000416583757   -0.0500
     18 C18        -1.4854    2.1503   49.8615 C.ar    1  ZINC000416583757   -0.0700
     19 C19        -2.3686    2.5743   50.8379 C.ar    1  ZINC000416583757   -0.0800
     20 Br20       -4.2202    2.2406   50.6477 Br      1  ZINC000416583757   -0.0300
     21 C21        -1.8967    3.2378   51.9560 C.ar    1  ZINC000416583757   -0.0700
     22 H22         0.1670    1.5012   60.7943 H       1  ZINC000416583757    0.0700
     23 H23         0.2953    0.4916   59.3340 H       1  ZINC000416583757    0.0800
     24 H24         1.2696    1.9741   59.4795 H       1  ZINC000416583757    0.0700
     25 H25         0.4542    2.9410   57.4344 H       1  ZINC000416583757    0.0900
     26 H26        -0.5316    1.5004   57.0861 H       1  ZINC000416583757    0.1000
     27 H27        -3.1148    3.9214   58.2241 H       1  ZINC000416583757    0.0700
     28 H28        -3.6080    3.4730   56.5736 H       1  ZINC000416583757    0.0800
     29 H29        -3.1441    2.2093   57.7381 H       1  ZINC000416583757    0.0800
     30 H30        -0.4235    2.5654   54.5875 H       1  ZINC000416583757    0.4200
     31 H31        -0.4048    5.2380   53.3043 H       1  ZINC000416583757    0.0800
     32 H32         1.0591    4.2256   53.2925 H       1  ZINC000416583757    0.1000
     33 H33         1.3966    3.2544   51.2268 H       1  ZINC000416583757    0.1500
     34 H34        -1.8533    1.6288   48.9901 H       1  ZINC000416583757    0.1500
     35 H35        -2.5863    3.5690   52.7184 H       1  ZINC000416583757    0.1400
@<TRIPOS>BOND
     1     1     2    1
     2     1    22    1
     3     1    23    1
     4     1    24    1
     5     2     3    1
     6     2     4    1
     7     2     6    1
     8     4     5    3
     9     6     7    1
    10     6    25    1
    11     6    26    1
    12     7     8    1
    13     7     9   am
    14     8    27    1
    15     8    28    1
    16     8    29    1
    17     9    10    2
    18     9    11    2
    19     9    12   am
    20    12    13    1
    21    12    30    1
    22    13    14    1
    23    13    31    1
    24    13    32    1
    25    14    21   ar
    26    14    15   ar
    27    15    16   ar
    28    15    33    1
    29    16    17    1
    30    16    18   ar
    31    18    19   ar
    32    18    34    1
    33    19    20    1
    34    19    21   ar
    35    21    35    1
@<TRIPOS>SUBSTRUCTURE
     1 ZINC000416583757        1 TEMP              0 ****  ****    0 ROOT


##########                                Name:    ZINC000599228306
##########                DOCK_Rotatable_Bonds:                   8
##########                         Heavy_Atoms:                  25
##########                    Molecular_Weight:             379.382
##########                DOCK_Rotatable_Bonds:                   8
##########                       Formal_Charge:        -4.09782e-08
##########                     HBond_Acceptors:                  10
##########                        HBond_Donors:                   1
##########                         Heavy_Atoms:                  25
##########                          Grid_Score:          -28.082405
##########                     Grid_vdw_energy:          -27.490417
##########                      Grid_es_energy:           -0.591988
##########           Internal_energy_repulsive:           20.034628

@<TRIPOS>MOLECULE
ZINC000599228306
 44 44 1 0 0
SMALL
USER_CHARGES


@<TRIPOS>ATOM
      1 C1         -5.7173    1.0739   50.7433 C.3     1  ZINC000599228306    0.0400
      2 O2         -4.4280    1.4383   51.3030 O.3     1  ZINC000599228306   -0.3500
      3 C3         -3.8884    2.6015   50.8893 C.2     1  ZINC000599228306    0.5100
      4 O4         -4.5730    3.4125   50.2981 O.2     1  ZINC000599228306   -0.4800
      5 C5         -2.4657    2.8904   51.1543 C.ar    1  ZINC000599228306   -0.1500
      6 C6         -1.4729    2.3186   50.3553 C.ar    1  ZINC000599228306   -0.0100
      7 C7         -0.1436    2.5934   50.6091 C.ar    1  ZINC000599228306    0.0700
      8 F8          0.8178    2.0411   49.8371 F       1  ZINC000599228306   -0.1200
      9 C9          0.2069    3.4348   51.6535 C.ar    1  ZINC000599228306    0.0100
     10 C10        -0.7699    4.0045   52.4487 C.ar    1  ZINC000599228306   -0.7100
     11 S11        -0.3124    5.0730   53.7731 S.o2    1  ZINC000599228306    2.7000
     12 O12         1.0035    4.6969   54.1556 O.2     1  ZINC000599228306   -0.9200
     13 O13        -0.6564    6.3895   53.3637 O.2     1  ZINC000599228306   -0.9300
     14 N14        -1.2941    4.7107   55.0566 N.am    1  ZINC000599228306   -1.1000
     15 C15        -1.2877    3.3609   55.6257 C.3     1  ZINC000599228306    0.1600
     16 H16        -0.9941    2.6445   54.8583 H       1  ZINC000599228306    0.1300
     17 C17        -0.2926    3.3014   56.7863 C.3     1  ZINC000599228306   -0.1700
     18 C18        -2.6671    3.0211   56.1286 C.2     1  ZINC000599228306    0.4700
     19 O19        -2.8060    2.1977   57.0018 O.2     1  ZINC000599228306   -0.4900
     20 O20        -3.7414    3.6333   55.6063 O.3     1  ZINC000599228306   -0.3400
     21 C21        -4.6757    4.2359   56.5402 C.3     1  ZINC000599228306    0.1200
     22 C22        -5.4630    5.3406   55.8327 C.3     1  ZINC000599228306   -0.1900
     23 C23        -5.6440    3.1683   57.0535 C.3     1  ZINC000599228306   -0.1400
     24 C24        -3.9045    4.8339   57.7187 C.3     1  ZINC000599228306   -0.1800
     25 C25        -2.1051    3.7428   52.2033 C.ar    1  ZINC000599228306    0.2500
     26 F26        -3.0586    4.3007   52.9810 F       1  ZINC000599228306   -0.0900
     27 H27        -6.0368    0.1184   51.1592 H       1  ZINC000599228306    0.1100
     28 H28        -6.4507    1.8414   50.9906 H       1  ZINC000599228306    0.0700
     29 H29        -5.6321    0.9884   49.6600 H       1  ZINC000599228306    0.0700
     30 H30        -1.7442    1.6629   49.5412 H       1  ZINC000599228306    0.1700
     31 H31         1.2482    3.6460   51.8472 H       1  ZINC000599228306    0.1800
     32 H32        -1.8733    5.3925   55.4317 H       1  ZINC000599228306    0.4300
     33 H33        -0.2879    2.2969   57.2097 H       1  ZINC000599228306    0.0900
     34 H34         0.7051    3.5471   56.4226 H       1  ZINC000599228306    0.0700
     35 H35        -0.5863    4.0178   57.5536 H       1  ZINC000599228306    0.0800
     36 H36        -6.0124    4.9146   54.9931 H       1  ZINC000599228306    0.0600
     37 H37        -6.1643    5.7931   56.5338 H       1  ZINC000599228306    0.0700
     38 H38        -4.7732    6.1013   55.4670 H       1  ZINC000599228306    0.0800
     39 H39        -5.0831    2.3813   57.5576 H       1  ZINC000599228306    0.0700
     40 H40        -6.3453    3.6207   57.7547 H       1  ZINC000599228306    0.0800
     41 H41        -6.1934    2.7422   56.2140 H       1  ZINC000599228306    0.0700
     42 H42        -3.2148    5.5945   57.3530 H       1  ZINC000599228306    0.0800
     43 H43        -4.6059    5.2863   58.4198 H       1  ZINC000599228306    0.0700
     44 H44        -3.3436    4.0469   58.2227 H       1  ZINC000599228306    0.0600
@<TRIPOS>BOND
     1     1     2    1
     2     1    27    1
     3     1    28    1
     4     1    29    1
     5     2     3    1
     6     3     4    2
     7     3     5    1
     8     5    25   ar
     9     5     6   ar
    10     6     7   ar
    11     6    30    1
    12     7     8    1
    13     7     9   ar
    14     9    10   ar
    15     9    31    1
    16    10    11    1
    17    10    25   ar
    18    11    12    2
    19    11    13    2
    20    11    14   am
    21    14    15    1
    22    14    32    1
    23    15    16    1
    24    15    17    1
    25    15    18    1
    26    17    33    1
    27    17    34    1
    28    17    35    1
    29    18    19    2
    30    18    20    1
    31    20    21    1
    32    21    22    1
    33    21    23    1
    34    21    24    1
    35    22    36    1
    36    22    37    1
    37    22    38    1
    38    23    39    1
    39    23    40    1
    40    23    41    1
    41    24    42    1
    42    24    43    1
    43    24    44    1
    44    25    26    1
@<TRIPOS>SUBSTRUCTURE
     1 ZINC000599228306        1 TEMP              0 ****  ****    0 ROOT


##########                                Name:    ZINC000151303733
##########                DOCK_Rotatable_Bonds:                   7
##########                         Heavy_Atoms:                  26
##########                    Molecular_Weight:             369.444
##########                DOCK_Rotatable_Bonds:                   7
##########                       Formal_Charge:        -1.93715e-07
##########                     HBond_Acceptors:                   7
##########                        HBond_Donors:                   2
##########                         Heavy_Atoms:                  26
##########                          Grid_Score:          -28.041704
##########                     Grid_vdw_energy:          -28.050087
##########                      Grid_es_energy:            0.008383
##########           Internal_energy_repulsive:           10.362157

@<TRIPOS>MOLECULE
ZINC000151303733
 45 48 1 0 0
SMALL
USER_CHARGES


@<TRIPOS>ATOM
      1 C1         -1.8035    4.6154   53.6761 C.3     1  ZINC000151303733   -0.1000
      2 C2         -1.7451    3.7088   54.8784 C.2     1  ZINC000151303733   -0.1200
      3 C3         -0.5946    3.2735   55.3936 C.2     1  ZINC000151303733   -0.2000
      4 S4         -0.9185    2.2431   56.7816 S.3     1  ZINC000151303733    0.1200
      5 C5         -2.6517    2.4650   56.5824 C.2     1  ZINC000151303733   -0.2400
      6 C6         -2.8843    3.2678   55.5375 C.2     1  ZINC000151303733    0.1200
      7 N7         -4.1827    3.6289   55.1324 N.am    1  ZINC000151303733   -0.6400
      8 C8         -5.0717    4.0774   56.0407 C.2     1  ZINC000151303733    0.5100
      9 O9         -4.7526    4.1698   57.2074 O.2     1  ZINC000151303733   -0.5100
     10 C10        -6.4622    4.4641   55.6069 C.3     1  ZINC000151303733    0.1000
     11 N11        -6.9423    3.5127   54.6017 N.am    1  ZINC000151303733   -0.7100
     12 C12        -7.2135    3.9338   53.3504 C.2     1  ZINC000151303733    0.5200
     13 O13        -7.0612    5.1007   53.0571 O.2     1  ZINC000151303733   -0.5100
     14 C14        -7.7057    2.9548   52.3160 C.3     1  ZINC000151303733    0.1600
     15 H15        -7.8030    3.4490   51.3494 H       1  ZINC000151303733    0.1300
     16 C16        -9.0332    2.3774   52.7390 C.ar    1  ZINC000151303733   -0.0900
     17 C17       -10.2644    2.9344   52.9949 C.ar    1  ZINC000151303733   -0.0900
     18 C18       -11.3233    2.1269   53.3761 C.ar    1  ZINC000151303733   -0.0800
     19 C19       -11.1463    0.7605   53.5005 C.ar    1  ZINC000151303733   -0.1200
     20 C20        -9.9153    0.1915   53.2462 C.ar    1  ZINC000151303733   -0.0400
     21 C21        -8.8435    0.9987   52.8615 C.ar    1  ZINC000151303733   -0.1500
     22 C22        -7.4389    0.6937   52.5282 C.2     1  ZINC000151303733    0.5600
     23 O23        -6.9485   -0.4185   52.5376 O.2     1  ZINC000151303733   -0.5100
     24 N24        -6.7784    1.8223   52.2121 N.am    1  ZINC000151303733   -0.5700
     25 C25        -5.3670    1.9059   51.8282 C.3     1  ZINC000151303733    0.0900
     26 C26        -4.9653    1.3071   50.4787 C.3     1  ZINC000151303733   -0.1800
     27 C27        -5.0058    2.8258   50.6602 C.3     1  ZINC000151303733   -0.1900
     28 H28        -1.7784    5.6548   54.0032 H       1  ZINC000151303733    0.0700
     29 H29        -0.9486    4.4172   53.0296 H       1  ZINC000151303733    0.0700
     30 H30        -2.7260    4.4300   53.1257 H       1  ZINC000151303733    0.0600
     31 H31         0.3874    3.5164   55.0155 H       1  ZINC000151303733    0.1700
     32 H32        -3.4120    2.0241   57.2101 H       1  ZINC000151303733    0.2000
     33 H33        -4.4379    3.5549   54.1996 H       1  ZINC000151303733    0.4200
     34 H34        -7.1290    4.4492   56.4690 H       1  ZINC000151303733    0.1100
     35 H35        -6.4438    5.4663   55.1790 H       1  ZINC000151303733    0.1100
     36 H36        -7.0652    2.5796   54.8367 H       1  ZINC000151303733    0.4100
     37 H37       -10.4055    4.0009   52.8990 H       1  ZINC000151303733    0.1300
     38 H38       -12.2896    2.5653   53.5773 H       1  ZINC000151303733    0.1400
     39 H39       -11.9757    0.1362   53.7985 H       1  ZINC000151303733    0.1400
     40 H40        -9.7815   -0.8757   53.3441 H       1  ZINC000151303733    0.1400
     41 H41        -4.6517    1.8273   52.6469 H       1  ZINC000151303733    0.1400
     42 H42        -3.9855    0.8344   50.4095 H       1  ZINC000151303733    0.1000
     43 H43        -5.7511    0.8510   49.8766 H       1  ZINC000151303733    0.1300
     44 H44        -5.8182    3.3688   50.1774 H       1  ZINC000151303733    0.1000
     45 H45        -4.0527    3.3522   50.7104 H       1  ZINC000151303733    0.1000
@<TRIPOS>BOND
     1     1     2    1
     2     1    28    1
     3     1    29    1
     4     1    30    1
     5     2     6    1
     6     2     3    2
     7     3     4    1
     8     3    31    1
     9     4     5    1
    10     5     6    2
    11     5    32    1
    12     6     7    1
    13     7     8   am
    14     7    33    1
    15     8     9    2
    16     8    10    1
    17    10    11    1
    18    10    34    1
    19    10    35    1
    20    11    12   am
    21    11    36    1
    22    12    13    2
    23    12    14    1
    24    14    15    1
    25    14    24    1
    26    14    16    1
    27    16    21   ar
    28    16    17   ar
    29    17    18   ar
    30    17    37    1
    31    18    19   ar
    32    18    38    1
    33    19    20   ar
    34    19    39    1
    35    20    21   ar
    36    20    40    1
    37    21    22    1
    38    22    23    2
    39    22    24   am
    40    24    25    1
    41    25    27    1
    42    25    26    1
    43    25    41    1
    44    26    27    1
    45    26    42    1
    46    26    43    1
    47    27    44    1
    48    27    45    1
@<TRIPOS>SUBSTRUCTURE
     1 ZINC000151303733        1 TEMP              0 ****  ****    0 ROOT


##########                                Name:    ZINC000032503012
##########                DOCK_Rotatable_Bonds:                   8
##########                         Heavy_Atoms:                  27
##########                    Molecular_Weight:             390.503
##########                DOCK_Rotatable_Bonds:                   8
##########                       Formal_Charge:           0.0099995
##########                     HBond_Acceptors:                   7
##########                        HBond_Donors:                   2
##########                         Heavy_Atoms:                  27
##########                          Grid_Score:          -28.025692
##########                     Grid_vdw_energy:          -28.148922
##########                      Grid_es_energy:            0.123229
##########           Internal_energy_repulsive:           42.487125

@<TRIPOS>MOLECULE
ZINC000032503012
 53 54 1 0 0
SMALL
USER_CHARGES


@<TRIPOS>ATOM
      1 C1         -9.1375    2.1309   52.4290 C.3     1  ZINC000032503012   -0.1200
      2 C2         -8.2935    3.1556   51.7157 C.ar    1  ZINC000032503012   -0.0500
      3 C3         -8.8981    4.2036   51.0469 C.ar    1  ZINC000032503012   -0.1600
      4 C4         -8.1265    5.1455   50.3914 C.ar    1  ZINC000032503012   -0.0700
      5 C5         -6.7492    5.0412   50.4034 C.ar    1  ZINC000032503012   -0.1500
      6 C6         -6.1401    3.9903   51.0739 C.ar    1  ZINC000032503012    0.1300
      7 O7         -4.7851    3.8857   51.0876 O.3     1  ZINC000032503012   -0.2800
      8 C8         -4.2324    2.6888   51.6387 C.3     1  ZINC000032503012    0.0700
      9 H9         -4.7380    2.4526   52.5751 H       1  ZINC000032503012    0.1100
     10 C10        -4.4241    1.5364   50.6508 C.3     1  ZINC000032503012   -0.1800
     11 C11        -2.7614    2.8882   51.8986 C.2     1  ZINC000032503012    0.5200
     12 O12        -2.3518    2.9660   53.0375 O.2     1  ZINC000032503012   -0.4900
     13 N13        -1.9009    2.9800   50.8654 N.am    1  ZINC000032503012   -0.6700
     14 C14        -0.5351    3.1651   51.1066 C.ar    1  ZINC000032503012    0.1300
     15 C15        -0.0901    4.3199   51.7361 C.ar    1  ZINC000032503012   -0.0600
     16 C16         1.2589    4.4997   51.9728 C.ar    1  ZINC000032503012   -0.1200
     17 C17         2.1658    3.5315   51.5831 C.ar    1  ZINC000032503012   -0.0300
     18 C18         1.7258    2.3803   50.9555 C.ar    1  ZINC000032503012   -0.6600
     19 S19         2.8855    1.1495   50.4608 S.o2    1  ZINC000032503012    2.7000
     20 O20         3.6502    0.8315   51.6156 O.2     1  ZINC000032503012   -0.9600
     21 O21         2.1527    0.1810   49.7230 O.2     1  ZINC000032503012   -0.9500
     22 N22         3.9292    1.8614   49.3902 N.am    1  ZINC000032503012   -1.1100
     23 C23         3.4193    2.4389   48.1441 C.3     1  ZINC000032503012    0.1700
     24 C24         2.8255    3.8201   48.4274 C.3     1  ZINC000032503012   -0.1900
     25 C25         4.5642    2.5724   47.1379 C.3     1  ZINC000032503012   -0.1500
     26 C26         2.3356    1.5268   47.5654 C.3     1  ZINC000032503012   -0.1800
     27 C27         0.3779    2.1915   50.7219 C.ar    1  ZINC000032503012   -0.0400
     28 C28        -6.9161    3.0500   51.7355 C.ar    1  ZINC000032503012   -0.2100
     29 H29        -9.3096    2.4531   53.4559 H       1  ZINC000032503012    0.0700
     30 H30       -10.0936    2.0267   51.9158 H       1  ZINC000032503012    0.0700
     31 H31        -8.6198    1.1717   52.4311 H       1  ZINC000032503012    0.0700
     32 H32        -9.9748    4.2866   51.0360 H       1  ZINC000032503012    0.1300
     33 H33        -8.6011    5.9632   49.8692 H       1  ZINC000032503012    0.1300
     34 H34        -6.1470    5.7769   49.8910 H       1  ZINC000032503012    0.1300
     35 H35        -5.4880    1.3921   50.4629 H       1  ZINC000032503012    0.0800
     36 H36        -3.9185    1.7725   49.7146 H       1  ZINC000032503012    0.0800
     37 H37        -4.0024    0.6234   51.0713 H       1  ZINC000032503012    0.0800
     38 H38        -2.2284    2.9177   49.9544 H       1  ZINC000032503012    0.4100
     39 H39        -0.7978    5.0769   52.0401 H       1  ZINC000032503012    0.1400
     40 H40         1.6057    5.3977   52.4624 H       1  ZINC000032503012    0.1400
     41 H41         3.2200    3.6747   51.7690 H       1  ZINC000032503012    0.1500
     42 H42         4.8781    1.8962   49.5882 H       1  ZINC000032503012    0.4200
     43 H43         3.5397    4.4121   48.9999 H       1  ZINC000032503012    0.0700
     44 H44         2.6096    4.3231   47.4849 H       1  ZINC000032503012    0.0800
     45 H45         1.9043    3.7092   48.9995 H       1  ZINC000032503012    0.0700
     46 H46         4.9871    1.5884   46.9360 H       1  ZINC000032503012    0.0700
     47 H47         4.1847    3.0020   46.2108 H       1  ZINC000032503012    0.0700
     48 H48         5.3361    3.2222   47.5502 H       1  ZINC000032503012    0.0600
     49 H49         1.4409    1.5872   48.1851 H       1  ZINC000032503012    0.0900
     50 H50         2.0968    1.8449   46.5505 H       1  ZINC000032503012    0.0700
     51 H51         2.6970    0.4986   47.5484 H       1  ZINC000032503012    0.0600
     52 H52         0.0349    1.2924   50.2317 H       1  ZINC000032503012    0.1400
     53 H53        -6.4443    2.2310   52.2581 H       1  ZINC000032503012    0.1300
@<TRIPOS>BOND
     1     1     2    1
     2     1    29    1
     3     1    30    1
     4     1    31    1
     5     2    28   ar
     6     2     3   ar
     7     3     4   ar
     8     3    32    1
     9     4     5   ar
    10     4    33    1
    11     5     6   ar
    12     5    34    1
    13     6     7    1
    14     6    28   ar
    15     7     8    1
    16     8     9    1
    17     8    10    1
    18     8    11    1
    19    10    35    1
    20    10    36    1
    21    10    37    1
    22    11    12    2
    23    11    13   am
    24    13    14    1
    25    13    38    1
    26    14    27   ar
    27    14    15   ar
    28    15    16   ar
    29    15    39    1
    30    16    17   ar
    31    16    40    1
    32    17    18   ar
    33    17    41    1
    34    18    19    1
    35    18    27   ar
    36    19    20    2
    37    19    21    2
    38    19    22   am
    39    22    23    1
    40    22    42    1
    41    23    24    1
    42    23    25    1
    43    23    26    1
    44    24    43    1
    45    24    44    1
    46    24    45    1
    47    25    46    1
    48    25    47    1
    49    25    48    1
    50    26    49    1
    51    26    50    1
    52    26    51    1
    53    27    52    1
    54    28    53    1
@<TRIPOS>SUBSTRUCTURE
     1 ZINC000032503012        1 TEMP              0 ****  ****    0 ROOT


##########                                Name:    ZINC000269287897
##########                DOCK_Rotatable_Bonds:                   8
##########                         Heavy_Atoms:                  23
##########                    Molecular_Weight:             385.301
##########                DOCK_Rotatable_Bonds:                   8
##########                       Formal_Charge:           0.0300002
##########                     HBond_Acceptors:                   5
##########                        HBond_Donors:                   1
##########                         Heavy_Atoms:                  23
##########                          Grid_Score:          -28.015888
##########                     Grid_vdw_energy:          -27.906931
##########                      Grid_es_energy:           -0.108958
##########           Internal_energy_repulsive:            9.241979

@<TRIPOS>MOLECULE
ZINC000269287897
 48 49 1 0 0
SMALL
USER_CHARGES


@<TRIPOS>ATOM
      1 C1         -0.3405   -3.7699   61.8660 C.3     1  ZINC000269287897    0.0300
      2 O2         -0.0612   -2.6255   61.0570 O.3     1  ZINC000269287897   -0.3800
      3 C3          0.0564   -1.4072   61.7943 C.3     1  ZINC000269287897    0.0600
      4 C4          0.4333   -0.2697   60.8429 C.3     1  ZINC000269287897    0.0600
      5 O5          0.5711    0.9447   61.5833 O.3     1  ZINC000269287897   -0.3800
      6 C6          0.9800    2.0635   60.7940 C.3     1  ZINC000269287897    0.0700
      7 C7         -0.2248    2.6166   60.0303 C.3     1  ZINC000269287897   -0.1000
      8 H8         -1.1581    2.3166   60.5069 H       1  ZINC000269287897    0.1000
      9 C9         -0.1388    4.1602   59.8984 C.3     1  ZINC000269287897   -0.1200
     10 C10        -0.9505    4.4433   58.6168 C.3     1  ZINC000269287897    0.1000
     11 N11        -0.9701    3.2019   57.8293 N.am    1  ZINC000269287897   -0.6300
     12 C12        -1.5952    3.0311   56.6476 C.2     1  ZINC000269287897    0.7300
     13 O13        -1.5450    1.9552   56.0832 O.2     1  ZINC000269287897   -0.5600
     14 N14        -2.2760    4.0526   56.0915 N.am    1  ZINC000269287897   -0.6900
     15 C15        -2.9253    3.8752   54.8641 C.ar    1  ZINC000269287897    0.1800
     16 C16        -4.2783    3.5668   54.8311 C.ar    1  ZINC000269287897   -0.0600
     17 C17        -5.0506    3.4225   56.1171 C.3     1  ZINC000269287897   -0.1000
     18 C18        -4.9165    3.3927   53.6181 C.ar    1  ZINC000269287897   -0.0900
     19 C19        -4.2093    3.5254   52.4376 C.ar    1  ZINC000269287897   -0.0800
     20 C20        -4.9090    3.3347   51.1166 C.3     1  ZINC000269287897   -0.1100
     21 C21        -2.8612    3.8330   52.4663 C.ar    1  ZINC000269287897   -0.0900
     22 C22        -2.2180    4.0131   53.6758 C.ar    1  ZINC000269287897   -0.1000
     23 Br23       -0.3749    4.4343   53.7145 Br      1  ZINC000269287897   -0.0500
     24 C24        -0.1921    2.1744   58.5461 C.3     1  ZINC000269287897    0.1400
     25 H25         0.4627   -3.9081   62.5896 H       1  ZINC000269287897    0.0400
     26 H26        -1.2828   -3.6208   62.3932 H       1  ZINC000269287897    0.0400
     27 H27        -0.4146   -4.6536   61.2322 H       1  ZINC000269287897    0.0900
     28 H28        -0.8956   -1.1793   62.2737 H       1  ZINC000269287897    0.0600
     29 H29         0.8295   -1.5159   62.5549 H       1  ZINC000269287897    0.0600
     30 H30         1.3775   -0.5048   60.3516 H       1  ZINC000269287897    0.0700
     31 H31        -0.3474   -0.1507   60.0917 H       1  ZINC000269287897    0.0600
     32 H32         1.3848    2.8387   61.4448 H       1  ZINC000269287897    0.0600
     33 H33         1.7457    1.7477   60.0853 H       1  ZINC000269287897    0.0500
     34 H34        -0.5960    4.6469   60.7599 H       1  ZINC000269287897    0.0900
     35 H35         0.8963    4.4799   59.7778 H       1  ZINC000269287897    0.0800
     36 H36        -1.9684    4.7321   58.8788 H       1  ZINC000269287897    0.0700
     37 H37        -0.4733    5.2383   58.0437 H       1  ZINC000269287897    0.0700
     38 H38        -2.3160    4.9109   56.5417 H       1  ZINC000269287897    0.4100
     39 H39        -5.5796    4.3516   56.3295 H       1  ZINC000269287897    0.0900
     40 H40        -5.7695    2.6091   56.0199 H       1  ZINC000269287897    0.0600
     41 H41        -4.3610    3.2025   56.9322 H       1  ZINC000269287897    0.0600
     42 H42        -5.9691    3.1525   53.5922 H       1  ZINC000269287897    0.1300
     43 H43        -5.3054    4.2905   50.7741 H       1  ZINC000269287897    0.0700
     44 H44        -4.2006    2.9511   50.3823 H       1  ZINC000269287897    0.0700
     45 H45        -5.7269    2.6246   51.2378 H       1  ZINC000269287897    0.0700
     46 H46        -2.3115    3.9358   51.5424 H       1  ZINC000269287897    0.1400
     47 H47         0.8344    2.1519   58.1802 H       1  ZINC000269287897    0.0700
     48 H48        -0.6584    1.1960   58.4303 H       1  ZINC000269287897    0.0900
@<TRIPOS>BOND
     1     1     2    1
     2     1    25    1
     3     1    26    1
     4     1    27    1
     5     2     3    1
     6     3     4    1
     7     3    28    1
     8     3    29    1
     9     4     5    1
    10     4    30    1
    11     4    31    1
    12     5     6    1
    13     6     7    1
    14     6    32    1
    15     6    33    1
    16     7     8    1
    17     7    24    1
    18     7     9    1
    19     9    10    1
    20     9    34    1
    21     9    35    1
    22    10    11    1
    23    10    36    1
    24    10    37    1
    25    11    12   am
    26    11    24    1
    27    12    13    2
    28    12    14   am
    29    14    15    1
    30    14    38    1
    31    15    22   ar
    32    15    16   ar
    33    16    17    1
    34    16    18   ar
    35    17    39    1
    36    17    40    1
    37    17    41    1
    38    18    19   ar
    39    18    42    1
    40    19    20    1
    41    19    21   ar
    42    20    43    1
    43    20    44    1
    44    20    45    1
    45    21    22   ar
    46    21    46    1
    47    22    23    1
    48    24    47    1
    49    24    48    1
@<TRIPOS>SUBSTRUCTURE
     1 ZINC000269287897        1 TEMP              0 ****  ****    0 ROOT


##########                                Name:    ZINC000345028113
##########                DOCK_Rotatable_Bonds:                   5
##########                         Heavy_Atoms:                  21
##########                    Molecular_Weight:             331.838
##########                DOCK_Rotatable_Bonds:                   5
##########                       Formal_Charge:         4.47035e-07
##########                     HBond_Acceptors:                   6
##########                        HBond_Donors:                   0
##########                         Heavy_Atoms:                  21
##########                          Grid_Score:          -27.997976
##########                     Grid_vdw_energy:          -27.718325
##########                      Grid_es_energy:           -0.279652
##########           Internal_energy_repulsive:           17.972017

@<TRIPOS>MOLECULE
ZINC000345028113
 40 41 1 0 0
SMALL
USER_CHARGES


@<TRIPOS>ATOM
      1 C1         -6.3018    3.3121   53.6870 C.3     1  ZINC000345028113   -0.1700
      2 C2         -6.8266    2.8442   52.3281 C.3     1  ZINC000345028113    0.1400
      3 H3         -6.0827    3.0540   51.5596 H       1  ZINC000345028113    0.1100
      4 C4         -8.1253    3.5879   51.9986 C.3     1  ZINC000345028113   -0.0700
      5 H5         -8.4806    3.2840   51.0140 H       1  ZINC000345028113    0.0900
      6 C6         -7.8690    5.0963   52.0082 C.3     1  ZINC000345028113   -0.1400
      7 S7         -9.3733    3.1707   53.2521 S.3     1  ZINC000345028113   -0.2400
      8 C8         -9.3939    1.3545   53.1887 C.3     1  ZINC000345028113   -0.1100
      9 C9         -7.9668    0.8369   53.3978 C.3     1  ZINC000345028113    0.1000
     10 N10        -7.0869    1.4045   52.3750 N.am    1  ZINC000345028113   -0.6100
     11 C11        -6.5100    0.5928   51.4668 C.2     1  ZINC000345028113    0.5200
     12 O12        -6.7200   -0.6012   51.5007 O.2     1  ZINC000345028113   -0.5300
     13 C13        -5.6040    1.1689   50.4092 C.3     1  ZINC000345028113   -0.1400
     14 C14        -4.2152    1.4106   51.0038 C.3     1  ZINC000345028113    0.0700
     15 O15        -3.5738    2.4752   50.2986 O.3     1  ZINC000345028113   -0.3000
     16 C16        -2.2806    2.7403   50.6243 C.ar    1  ZINC000345028113    0.1300
     17 C17        -1.2503    2.1131   49.9408 C.ar    1  ZINC000345028113   -0.1700
     18 C18         0.0638    2.3838   50.2724 C.ar    1  ZINC000345028113   -0.1100
     19 C19         0.3522    3.2807   51.2866 C.ar    1  ZINC000345028113    0.0800
     20 F20         1.6374    3.5444   51.6090 F       1  ZINC000345028113   -0.1300
     21 C21        -0.6753    3.9084   51.9707 C.ar    1  ZINC000345028113   -0.1100
     22 C22        -1.9905    3.6438   51.6378 C.ar    1  ZINC000345028113   -0.0400
     23 Cl23       -3.2787    4.4306   52.4951 Cl      1  ZINC000345028113   -0.0400
     24 H24        -5.3779    2.7832   53.9214 H       1  ZINC000345028113    0.0600
     25 H25        -6.1079    4.3841   53.6520 H       1  ZINC000345028113    0.0800
     26 H26        -7.0456    3.1023   54.4556 H       1  ZINC000345028113    0.0800
     27 H27        -7.1122    5.3410   51.2629 H       1  ZINC000345028113    0.0800
     28 H28        -8.7938    5.6234   51.7736 H       1  ZINC000345028113    0.0700
     29 H29        -7.5185    5.3989   52.9949 H       1  ZINC000345028113    0.0700
     30 H30       -10.0415    0.9687   53.9762 H       1  ZINC000345028113    0.1200
     31 H31        -9.7626    1.0270   52.2166 H       1  ZINC000345028113    0.0900
     32 H32        -7.6140    1.1330   54.3856 H       1  ZINC000345028113    0.0900
     33 H33        -7.9597   -0.2504   53.3204 H       1  ZINC000345028113    0.1000
     34 H34        -5.5262    0.4691   49.5771 H       1  ZINC000345028113    0.1100
     35 H35        -6.0161    2.1129   50.0527 H       1  ZINC000345028113    0.1100
     36 H36        -4.3121    1.6783   52.0561 H       1  ZINC000345028113    0.0800
     37 H37        -3.6182    0.5032   50.9133 H       1  ZINC000345028113    0.0800
     38 H38        -1.4744    1.4129   49.1497 H       1  ZINC000345028113    0.1500
     39 H39         0.8664    1.8949   49.7402 H       1  ZINC000345028113    0.1500
     40 H40        -0.4489    4.6078   52.7619 H       1  ZINC000345028113    0.1500
@<TRIPOS>BOND
     1     1     2    1
     2     1    24    1
     3     1    25    1
     4     1    26    1
     5     2     3    1
     6     2    10    1
     7     2     4    1
     8     4     5    1
     9     4     6    1
    10     4     7    1
    11     6    27    1
    12     6    28    1
    13     6    29    1
    14     7     8    1
    15     8     9    1
    16     8    30    1
    17     8    31    1
    18     9    10    1
    19     9    32    1
    20     9    33    1
    21    10    11   am
    22    11    12    2
    23    11    13    1
    24    13    14    1
    25    13    34    1
    26    13    35    1
    27    14    15    1
    28    14    36    1
    29    14    37    1
    30    15    16    1
    31    16    22   ar
    32    16    17   ar
    33    17    18   ar
    34    17    38    1
    35    18    19   ar
    36    18    39    1
    37    19    20    1
    38    19    21   ar
    39    21    22   ar
    40    21    40    1
    41    22    23    1
@<TRIPOS>SUBSTRUCTURE
     1 ZINC000345028113        1 TEMP              0 ****  ****    0 ROOT


##########                                Name:    ZINC000486710336
##########                DOCK_Rotatable_Bonds:                   6
##########                         Heavy_Atoms:                  31
##########                    Molecular_Weight:             420.555
##########                DOCK_Rotatable_Bonds:                   6
##########                       Formal_Charge:         1.49012e-07
##########                     HBond_Acceptors:                   6
##########                        HBond_Donors:                   1
##########                         Heavy_Atoms:                  31
##########                          Grid_Score:          -27.997145
##########                     Grid_vdw_energy:          -28.350187
##########                      Grid_es_energy:            0.353043
##########           Internal_energy_repulsive:           48.573208

@<TRIPOS>MOLECULE
ZINC000486710336
 63 67 1 0 0
SMALL
USER_CHARGES


@<TRIPOS>ATOM
      1 C1         -5.1440    4.0999   57.2747 C.3     1  ZINC000486710336    0.1000
      2 N2         -5.9293    3.4704   56.2102 N.pl3   1  ZINC000486710336   -0.3900
      3 N3         -5.5955    3.4333   54.8503 N.2     1  ZINC000486710336   -0.2800
      4 C4         -6.5357    2.7855   54.2112 C.2     1  ZINC000486710336    0.1000
      5 C5         -6.5690    2.5168   52.7287 C.3     1  ZINC000486710336   -0.0100
      6 C6         -7.0643    3.7682   51.9621 C.3     1  ZINC000486710336   -0.1200
      7 C7         -6.4755    3.5561   50.5452 C.3     1  ZINC000486710336   -0.1200
      8 C8         -5.0830    2.9441   50.8018 C.3     1  ZINC000486710336   -0.1200
      9 C9         -5.1424    2.2832   52.1902 C.3     1  ZINC000486710336   -0.1100
     10 C10        -7.5036    2.3850   55.1355 C.2     1  ZINC000486710336   -0.2600
     11 C11        -7.1081    2.8136   56.3666 C.2     1  ZINC000486710336    0.3000
     12 N12        -7.7906    2.6204   57.5643 N.am    1  ZINC000486710336   -0.6200
     13 C13        -7.7305    1.4281   58.1895 C.2     1  ZINC000486710336    0.5100
     14 O14        -7.0822    0.5219   57.7075 O.2     1  ZINC000486710336   -0.4800
     15 C15        -8.4612    1.2215   59.4751 C.2     1  ZINC000486710336    0.5300
     16 O16        -8.2101    1.9206   60.4349 O.2     1  ZINC000486710336   -0.5100
     17 N17        -9.3995    0.2587   59.5697 N.am    1  ZINC000486710336   -0.5800
     18 C18        -9.8054   -0.6648   58.4950 C.3     1  ZINC000486710336    0.1000
     19 C19       -10.9317   -1.5572   59.0620 C.3     1  ZINC000486710336   -0.0600
     20 H20       -10.5285   -2.4991   59.4339 H       1  ZINC000486710336    0.1000
     21 C21       -11.9919   -1.8062   58.0203 C.ar    1  ZINC000486710336   -0.0700
     22 C22       -11.7018   -1.6228   56.6812 C.ar    1  ZINC000486710336   -0.1100
     23 C23       -12.6742   -1.8512   55.7257 C.ar    1  ZINC000486710336   -0.1200
     24 C24       -13.9367   -2.2636   56.1092 C.ar    1  ZINC000486710336   -0.1200
     25 C25       -14.2266   -2.4478   57.4482 C.ar    1  ZINC000486710336   -0.1200
     26 C26       -13.2528   -2.2235   58.4034 C.ar    1  ZINC000486710336   -0.1100
     27 C27       -11.4936   -0.6950   60.2338 C.3     1  ZINC000486710336   -0.0800
     28 H28       -12.0025   -1.2920   60.9905 H       1  ZINC000486710336    0.1100
     29 C29       -12.4121    0.3538   59.6031 C.3     1  ZINC000486710336   -0.1100
     30 C30       -12.6847    1.4917   60.5839 C.3     1  ZINC000486710336   -0.1200
     31 C31       -11.3567    2.1786   60.9199 C.3     1  ZINC000486710336   -0.1100
     32 C32       -10.4530    1.1655   61.6226 C.3     1  ZINC000486710336   -0.1400
     33 C33       -10.1917   -0.0585   60.7608 C.3     1  ZINC000486710336    0.1400
     34 H34        -9.6374   -0.7875   61.3520 H       1  ZINC000486710336    0.0800
     35 H35        -4.4395    3.3755   57.6834 H       1  ZINC000486710336    0.0800
     36 H36        -4.5963    4.9500   56.8681 H       1  ZINC000486710336    0.1000
     37 H37        -5.8121    4.4425   58.0649 H       1  ZINC000486710336    0.0800
     38 H38        -7.2040    1.6578   52.5119 H       1  ZINC000486710336    0.0900
     39 H39        -8.1535    3.7942   51.9278 H       1  ZINC000486710336    0.0700
     40 H40        -6.6690    4.6787   52.4123 H       1  ZINC000486710336    0.0800
     41 H41        -7.0961    2.8660   49.9735 H       1  ZINC000486710336    0.0700
     42 H42        -6.3833    4.5090   50.0239 H       1  ZINC000486710336    0.0700
     43 H43        -4.8580    2.1960   50.0416 H       1  ZINC000486710336    0.0600
     44 H44        -4.3239    3.7262   50.7928 H       1  ZINC000486710336    0.0600
     45 H45        -4.4121    2.7447   52.8549 H       1  ZINC000486710336    0.0700
     46 H46        -4.9462    1.2145   52.1038 H       1  ZINC000486710336    0.0700
     47 H47        -8.4035    1.8306   54.9140 H       1  ZINC000486710336    0.1700
     48 H48        -8.3096    3.3441   57.9489 H       1  ZINC000486710336    0.4200
     49 H49       -10.1752   -0.0993   57.6397 H       1  ZINC000486710336    0.0900
     50 H50        -8.9579   -1.2819   58.1964 H       1  ZINC000486710336    0.0800
     51 H51       -10.7154   -1.3006   56.3817 H       1  ZINC000486710336    0.1200
     52 H52       -12.4477   -1.7073   54.6796 H       1  ZINC000486710336    0.1200
     53 H53       -14.6966   -2.4414   55.3627 H       1  ZINC000486710336    0.1200
     54 H54       -15.2130   -2.7696   57.7479 H       1  ZINC000486710336    0.1200
     55 H55       -13.4793   -2.3675   59.4495 H       1  ZINC000486710336    0.1200
     56 H56       -11.9363    0.7567   58.7090 H       1  ZINC000486710336    0.0700
     57 H57       -13.3561   -0.1156   59.3262 H       1  ZINC000486710336    0.0700
     58 H58       -13.3641    2.2122   60.1284 H       1  ZINC000486710336    0.0600
     59 H59       -13.1298    1.0909   61.4946 H       1  ZINC000486710336    0.0600
     60 H60       -10.8788    2.5222   60.0025 H       1  ZINC000486710336    0.0500
     61 H61       -11.5389    3.0271   61.5793 H       1  ZINC000486710336    0.0600
     62 H62        -9.5017    1.6409   61.8615 H       1  ZINC000486710336    0.1000
     63 H63       -10.9310    0.8414   62.5470 H       1  ZINC000486710336    0.0700
@<TRIPOS>BOND
     1     1     2    1
     2     1    35    1
     3     1    36    1
     4     1    37    1
     5     2    11    1
     6     2     3    1
     7     3     4    2
     8     4     5    1
     9     4    10    1
    10     5     9    1
    11     5     6    1
    12     5    38    1
    13     6     7    1
    14     6    39    1
    15     6    40    1
    16     7     8    1
    17     7    41    1
    18     7    42    1
    19     8     9    1
    20     8    43    1
    21     8    44    1
    22     9    45    1
    23     9    46    1
    24    10    11    2
    25    10    47    1
    26    11    12    1
    27    12    13   am
    28    12    48    1
    29    13    14    2
    30    13    15    1
    31    15    16    2
    32    15    17   am
    33    17    33    1
    34    17    18    1
    35    18    19    1
    36    18    49    1
    37    18    50    1
    38    19    20    1
    39    19    21    1
    40    19    27    1
    41    21    26   ar
    42    21    22   ar
    43    22    23   ar
    44    22    51    1
    45    23    24   ar
    46    23    52    1
    47    24    25   ar
    48    24    53    1
    49    25    26   ar
    50    25    54    1
    51    26    55    1
    52    27    28    1
    53    27    33    1
    54    27    29    1
    55    29    30    1
    56    29    56    1
    57    29    57    1
    58    30    31    1
    59    30    58    1
    60    30    59    1
    61    31    32    1
    62    31    60    1
    63    31    61    1
    64    32    33    1
    65    32    62    1
    66    32    63    1
    67    33    34    1
@<TRIPOS>SUBSTRUCTURE
     1 ZINC000486710336        1 TEMP              0 ****  ****    0 ROOT


##########                                Name:    ZINC000753658424
##########                DOCK_Rotatable_Bonds:                   8
##########                         Heavy_Atoms:                  24
##########                    Molecular_Weight:             332.399
##########                DOCK_Rotatable_Bonds:                   8
##########                       Formal_Charge:        -9.16421e-07
##########                     HBond_Acceptors:                   6
##########                        HBond_Donors:                   3
##########                         Heavy_Atoms:                  24
##########                          Grid_Score:          -27.992464
##########                     Grid_vdw_energy:          -27.445793
##########                      Grid_es_energy:           -0.546670
##########           Internal_energy_repulsive:           14.601506

@<TRIPOS>MOLECULE
ZINC000753658424
 48 49 1 0 0
SMALL
USER_CHARGES


@<TRIPOS>ATOM
      1 C1        -13.5169    3.5351   52.0279 C.3     1  ZINC000753658424   -0.2000
      2 C2        -12.4447    2.5766   51.5779 C.2     1  ZINC000753658424    0.4400
      3 O3        -12.6323    1.3800   51.6479 O.2     1  ZINC000753658424   -0.4500
      4 C4        -11.1747    3.0900   51.0552 C.2     1  ZINC000753658424   -0.2500
      5 C5        -10.9725    3.6905   49.8223 C.2     1  ZINC000753658424    0.1000
      6 C6        -12.0290    3.9321   48.7750 C.3     1  ZINC000753658424   -0.1000
      7 N7         -9.6766    4.0202   49.7207 N.pl3   1  ZINC000753658424   -0.5300
      8 C8         -9.0192    3.6446   50.8725 C.2     1  ZINC000753658424   -0.0600
      9 C9         -7.5890    3.8345   51.1461 C.2     1  ZINC000753658424    0.5900
     10 O10        -7.2103    4.8235   51.7452 O.2     1  ZINC000753658424   -0.5200
     11 N11        -6.6958    2.9133   50.7336 N.am    1  ZINC000753658424   -0.7300
     12 C12        -5.2689    3.1037   51.0052 C.3     1  ZINC000753658424    0.0900
     13 C13        -4.4565    2.0882   50.1991 C.3     1  ZINC000753658424    0.1900
     14 H14        -4.6907    2.1941   49.1399 H       1  ZINC000753658424    0.1300
     15 O15        -4.7851    0.7658   50.6298 O.3     1  ZINC000753658424   -0.5500
     16 C16        -2.9858    2.3360   50.4155 C.2     1  ZINC000753658424   -0.0600
     17 C17        -2.4362    2.9093   51.5012 C.2     1  ZINC000753658424   -0.1800
     18 C18        -1.0395    2.9423   51.2840 C.2     1  ZINC000753658424   -0.2100
     19 C19        -0.8192    2.3871   50.0788 C.2     1  ZINC000753658424    0.0000
     20 C20         0.5262    2.2053   49.4248 C.3     1  ZINC000753658424   -0.0800
     21 O21        -2.0012    2.0164   49.5599 O.3     1  ZINC000753658424   -0.1700
     22 C22        -9.9229    3.0724   51.7163 C.2     1  ZINC000753658424   -0.0100
     23 C23        -9.6417    2.5175   53.0889 C.3     1  ZINC000753658424   -0.0500
     24 C24       -10.7081    3.0133   54.0678 C.3     1  ZINC000753658424   -0.1500
     25 C25        -9.6689    0.9887   53.0364 C.3     1  ZINC000753658424   -0.1500
     26 H26       -14.4100    2.9761   52.3075 H       1  ZINC000753658424    0.0800
     27 H27       -13.1596    4.1024   52.8872 H       1  ZINC000753658424    0.1000
     28 H28       -13.7567    4.2199   51.2146 H       1  ZINC000753658424    0.0900
     29 H29       -12.4237    4.9422   48.8834 H       1  ZINC000753658424    0.0900
     30 H30       -11.5905    3.8177   47.7836 H       1  ZINC000753658424    0.0800
     31 H31       -12.8366    3.2109   48.9005 H       1  ZINC000753658424    0.0900
     32 H32        -9.2664    4.4548   48.9567 H       1  ZINC000753658424    0.4200
     33 H33        -6.9979    2.1243   50.2571 H       1  ZINC000753658424    0.4000
     34 H34        -4.9759    4.1135   50.7179 H       1  ZINC000753658424    0.0900
     35 H35        -5.0788    2.9589   52.0686 H       1  ZINC000753658424    0.0800
     36 H36        -4.6269    0.6078   51.5706 H       1  ZINC000753658424    0.3900
     37 H37        -2.9611    3.2748   52.3714 H       1  ZINC000753658424    0.1500
     38 H38        -0.2928    3.3376   51.9567 H       1  ZINC000753658424    0.1500
     39 H39         0.9405    1.2379   49.7089 H       1  ZINC000753658424    0.0800
     40 H40         0.4126    2.2478   48.3416 H       1  ZINC000753658424    0.0800
     41 H41         1.1989    2.9985   49.7510 H       1  ZINC000753658424    0.0900
     42 H42        -8.6593    2.8523   53.4218 H       1  ZINC000753658424    0.1100
     43 H43       -11.6730    2.5804   53.8036 H       1  ZINC000753658424    0.0500
     44 H44       -10.4398    2.7124   55.0804 H       1  ZINC000753658424    0.0600
     45 H45       -10.7712    4.1003   54.0163 H       1  ZINC000753658424    0.0600
     46 H46        -8.8581    0.6325   52.4010 H       1  ZINC000753658424    0.0500
     47 H47        -9.5446    0.5883   54.0426 H       1  ZINC000753658424    0.0600
     48 H48       -10.6233    0.6560   52.6284 H       1  ZINC000753658424    0.0600
@<TRIPOS>BOND
     1     1     2    1
     2     1    26    1
     3     1    27    1
     4     1    28    1
     5     2     3    2
     6     2     4    1
     7     4    22    1
     8     4     5    2
     9     5     6    1
    10     5     7    1
    11     6    29    1
    12     6    30    1
    13     6    31    1
    14     7     8    1
    15     7    32    1
    16     8     9    1
    17     8    22    2
    18     9    10    2
    19     9    11   am
    20    11    12    1
    21    11    33    1
    22    12    13    1
    23    12    34    1
    24    12    35    1
    25    13    14    1
    26    13    15    1
    27    13    16    1
    28    15    36    1
    29    16    21    1
    30    16    17    2
    31    17    18    1
    32    17    37    1
    33    18    19    2
    34    18    38    1
    35    19    20    1
    36    19    21    1
    37    20    39    1
    38    20    40    1
    39    20    41    1
    40    22    23    1
    41    23    24    1
    42    23    25    1
    43    23    42    1
    44    24    43    1
    45    24    44    1
    46    24    45    1
    47    25    46    1
    48    25    47    1
    49    25    48    1
@<TRIPOS>SUBSTRUCTURE
     1 ZINC000753658424        1 TEMP              0 ****  ****    0 ROOT


##########                                Name:    ZINC000863246516
##########                DOCK_Rotatable_Bonds:                   5
##########                         Heavy_Atoms:                  25
##########                    Molecular_Weight:             356.489
##########                DOCK_Rotatable_Bonds:                   5
##########                       Formal_Charge:         -0.00999938
##########                     HBond_Acceptors:                   5
##########                        HBond_Donors:                   0
##########                         Heavy_Atoms:                  25
##########                          Grid_Score:          -27.967468
##########                     Grid_vdw_energy:          -26.071592
##########                      Grid_es_energy:           -1.895875
##########           Internal_energy_repulsive:           11.702080

@<TRIPOS>MOLECULE
ZINC000863246516
 49 52 1 0 0
SMALL
USER_CHARGES


@<TRIPOS>ATOM
      1 C1         -6.2472    3.3886   66.7316 C.3     1  ZINC000863246516   -0.0600
      2 C2         -7.5114    2.5922   66.5351 C.2     1  ZINC000863246516   -0.2000
      3 C3         -7.8562    1.8806   65.4709 C.2     1  ZINC000863246516    0.0900
      4 C4         -6.9627    1.7837   64.2613 C.3     1  ZINC000863246516   -0.1000
      5 N5         -9.0584    1.2407   65.5252 N.am    1  ZINC000863246516   -0.5300
      6 C6         -9.5401    0.4260   64.4069 C.3     1  ZINC000863246516    0.1200
      7 C7        -10.3513    1.3021   63.4501 C.3     1  ZINC000863246516   -0.1500
      8 C8        -10.8598    0.4608   62.3077 C.2     1  ZINC000863246516    0.5400
      9 O9        -11.9812    0.0005   62.3458 O.2     1  ZINC000863246516   -0.5300
     10 N10       -10.0682    0.2199   61.2438 N.am    1  ZINC000863246516   -0.6100
     11 C11        -8.6976    0.7164   61.0763 C.3     1  ZINC000863246516    0.1100
     12 C12        -8.0404   -0.1550   59.9890 C.3     1  ZINC000863246516   -0.1300
     13 H13        -7.3632   -0.9266   60.3548 H       1  ZINC000863246516    0.1000
     14 C14        -7.5603    0.6566   58.7743 C.3     1  ZINC000863246516   -0.1200
     15 C15        -9.0246    0.6899   58.3079 C.3     1  ZINC000863246516   -0.0600
     16 H16        -9.5865    1.5396   58.6960 H       1  ZINC000863246516    0.1000
     17 C17        -9.1876    0.5118   56.8203 C.ar    1  ZINC000863246516   -0.0700
     18 C18        -8.3424    1.1724   55.9484 C.ar    1  ZINC000863246516   -0.1200
     19 C19        -8.4920    1.0090   54.5839 C.ar    1  ZINC000863246516   -0.1200
     20 C20        -9.4863    0.1846   54.0913 C.ar    1  ZINC000863246516   -0.1200
     21 C21       -10.3308   -0.4768   54.9633 C.ar    1  ZINC000863246516   -0.1200
     22 C22       -10.1785   -0.3167   56.3279 C.ar    1  ZINC000863246516   -0.1200
     23 C23        -9.2366   -0.6190   59.1210 C.3     1  ZINC000863246516   -0.1100
     24 H24        -9.1083   -1.5486   58.5666 H       1  ZINC000863246516    0.1200
     25 C25       -10.4396   -0.5846   60.0753 C.3     1  ZINC000863246516    0.1200
     26 C26        -9.7826    1.3874   66.6460 C.2     1  ZINC000863246516    0.4800
     27 O27       -10.8732    0.8996   66.8845 O.2     1  ZINC000863246516   -0.4700
     28 S28        -8.8505    2.4011   67.6801 S.3     1  ZINC000863246516    0.0100
     29 H29        -6.2616    3.8559   67.7163 H       1  ZINC000863246516    0.0700
     30 H30        -5.3849    2.7260   66.6566 H       1  ZINC000863246516    0.0800
     31 H31        -6.1807    4.1599   65.9644 H       1  ZINC000863246516    0.0800
     32 H32        -6.0580    2.3679   64.4301 H       1  ZINC000863246516    0.0900
     33 H33        -6.6951    0.7410   64.0898 H       1  ZINC000863246516    0.0800
     34 H34        -7.4885    2.1720   63.3891 H       1  ZINC000863246516    0.0800
     35 H35        -8.6895   -0.0010   63.8757 H       1  ZINC000863246516    0.1000
     36 H36       -10.1711   -0.3769   64.7877 H       1  ZINC000863246516    0.1000
     37 H37       -11.1957    1.7380   63.9841 H       1  ZINC000863246516    0.1000
     38 H38        -9.7172    2.0986   63.0607 H       1  ZINC000863246516    0.1000
     39 H39        -8.7147    1.7590   60.7587 H       1  ZINC000863246516    0.0700
     40 H40        -8.1489    0.6203   62.0132 H       1  ZINC000863246516    0.0800
     41 H41        -7.1634    1.6377   59.0348 H       1  ZINC000863246516    0.0800
     42 H42        -6.9034    0.0971   58.1084 H       1  ZINC000863246516    0.0900
     43 H43        -7.5656    1.8164   56.3332 H       1  ZINC000863246516    0.1200
     44 H44        -7.8321    1.5257   53.9027 H       1  ZINC000863246516    0.1200
     45 H45        -9.6035    0.0575   53.0253 H       1  ZINC000863246516    0.1200
     46 H46       -11.1079   -1.1205   54.5785 H       1  ZINC000863246516    0.1200
     47 H47       -10.8384   -0.8333   57.0092 H       1  ZINC000863246516    0.1200
     48 H48       -10.7006   -1.5992   60.3762 H       1  ZINC000863246516    0.0700
     49 H49       -11.2902   -0.1169   59.5793 H       1  ZINC000863246516    0.0700
@<TRIPOS>BOND
     1     1     2    1
     2     1    29    1
     3     1    30    1
     4     1    31    1
     5     2    28    1
     6     2     3    2
     7     3     4    1
     8     3     5    1
     9     4    32    1
    10     4    33    1
    11     4    34    1
    12     5     6    1
    13     5    26   am
    14     6     7    1
    15     6    35    1
    16     6    36    1
    17     7     8    1
    18     7    37    1
    19     7    38    1
    20     8     9    2
    21     8    10   am
    22    10    25    1
    23    10    11    1
    24    11    12    1
    25    11    39    1
    26    11    40    1
    27    12    13    1
    28    12    23    1
    29    12    14    1
    30    14    15    1
    31    14    41    1
    32    14    42    1
    33    15    16    1
    34    15    17    1
    35    15    23    1
    36    17    22   ar
    37    17    18   ar
    38    18    19   ar
    39    18    43    1
    40    19    20   ar
    41    19    44    1
    42    20    21   ar
    43    20    45    1
    44    21    22   ar
    45    21    46    1
    46    22    47    1
    47    23    24    1
    48    23    25    1
    49    25    48    1
    50    25    49    1
    51    26    27    2
    52    26    28    1
@<TRIPOS>SUBSTRUCTURE
     1 ZINC000863246516        1 TEMP              0 ****  ****    0 ROOT


##########                                Name:    ZINC000573650873
##########                DOCK_Rotatable_Bonds:                  10
##########                         Heavy_Atoms:                  28
##########                    Molecular_Weight:             418.843
##########                DOCK_Rotatable_Bonds:                  10
##########                       Formal_Charge:          -0.0500001
##########                     HBond_Acceptors:                   9
##########                        HBond_Donors:                   1
##########                         Heavy_Atoms:                  28
##########                          Grid_Score:          -27.957844
##########                     Grid_vdw_energy:          -27.053505
##########                      Grid_es_energy:           -0.904338
##########           Internal_energy_repulsive:           33.045547

@<TRIPOS>MOLECULE
ZINC000573650873
 50 51 1 0 0
SMALL
USER_CHARGES


@<TRIPOS>ATOM
      1 C1         -8.8085    0.9058   57.1026 C.3     1  ZINC000573650873   -0.1400
      2 C2         -8.2397    2.3199   57.2357 C.3     1  ZINC000573650873    0.0100
      3 C3         -8.9096    3.0303   58.4136 C.3     1  ZINC000573650873   -0.1400
      4 C4         -6.7311    2.2419   57.4784 C.3     1  ZINC000573650873   -0.1500
      5 C5         -8.5054    3.0897   55.9678 C.2     1  ZINC000573650873   -0.0100
      6 C6         -8.4265    2.6153   54.7029 C.2     1  ZINC000573650873   -0.1800
      7 C7         -8.7700    3.7351   53.8953 C.2     1  ZINC000573650873   -0.0300
      8 C8         -8.8438    3.7770   52.4145 C.2     1  ZINC000573650873    0.6000
      9 O9         -9.9169    3.6629   51.8563 O.2     1  ZINC000573650873   -0.5100
     10 N10        -7.7204    3.9416   51.6882 N.am    1  ZINC000573650873   -0.5900
     11 C11        -6.4265    4.0792   52.3613 C.3     1  ZINC000573650873    0.1200
     12 C12        -5.8323    2.6919   52.6126 C.3     1  ZINC000573650873   -0.1000
     13 C13        -4.4183    2.6494   52.0933 C.ar    1  ZINC000573650873   -0.0800
     14 C14        -4.1338    1.9792   50.9181 C.ar    1  ZINC000573650873   -0.1000
     15 C15        -2.8371    1.9399   50.4412 C.ar    1  ZINC000573650873   -0.1100
     16 C16        -1.8239    2.5713   51.1402 C.ar    1  ZINC000573650873   -0.0400
     17 Cl17       -0.1950    2.5229   50.5416 Cl      1  ZINC000573650873   -0.0700
     18 C18        -2.1092    3.2419   52.3163 C.ar    1  ZINC000573650873   -0.1100
     19 C19        -3.4073    3.2852   52.7892 C.ar    1  ZINC000573650873   -0.1000
     20 C20        -7.7934    3.9832   50.2256 C.3     1  ZINC000573650873    0.0700
     21 C21        -7.5910    5.4218   49.7455 C.3     1  ZINC000573650873    0.0600
     22 H22        -6.5536    5.7155   49.9048 H       1  ZINC000573650873    0.1400
     23 O23        -7.9020    5.5074   48.3534 O.3     1  ZINC000573650873   -0.5200
     24 C24        -8.5121    6.3563   50.5323 C.3     1  ZINC000573650873    0.4300
     25 F25        -8.3281    7.6716   50.0926 F       1  ZINC000573650873   -0.1700
     26 F26        -9.8437    5.9786   50.3288 F       1  ZINC000573650873   -0.1700
     27 F27        -8.2070    6.2732   51.8951 F       1  ZINC000573650873   -0.1800
     28 N28        -9.0086    4.7214   54.7236 N.2     1  ZINC000573650873   -0.3400
     29 O29        -8.8713    4.3756   55.8740 O.3     1  ZINC000573650873    0.1300
     30 H30        -9.8834    0.9613   56.9298 H       1  ZINC000573650873    0.0600
     31 H31        -8.3312    0.3997   56.2635 H       1  ZINC000573650873    0.0600
     32 H32        -8.6163    0.3490   58.0197 H       1  ZINC000573650873    0.0700
     33 H33        -8.7175    2.4735   59.3307 H       1  ZINC000573650873    0.0700
     34 H34        -8.5043    4.0377   58.5084 H       1  ZINC000573650873    0.0600
     35 H35        -9.9844    3.0859   58.2408 H       1  ZINC000573650873    0.0600
     36 H36        -6.2537    1.7358   56.6393 H       1  ZINC000573650873    0.0600
     37 H37        -6.3258    3.2493   57.5732 H       1  ZINC000573650873    0.0600
     38 H38        -6.5389    1.6851   58.3955 H       1  ZINC000573650873    0.0700
     39 H39        -8.1636    1.6184   54.3812 H       1  ZINC000573650873    0.1800
     40 H40        -5.7490    4.6560   51.7317 H       1  ZINC000573650873    0.0900
     41 H41        -6.5647    4.5931   53.3126 H       1  ZINC000573650873    0.1000
     42 H42        -5.8328    2.4849   53.6828 H       1  ZINC000573650873    0.0800
     43 H43        -6.4315    1.9412   52.0972 H       1  ZINC000573650873    0.0800
     44 H44        -4.9248    1.4860   50.3727 H       1  ZINC000573650873    0.1300
     45 H45        -2.6148    1.4160   49.5234 H       1  ZINC000573650873    0.1300
     46 H46        -1.3186    3.7347   52.8626 H       1  ZINC000573650873    0.1300
     47 H47        -3.6302    3.8089   53.7071 H       1  ZINC000573650873    0.1300
     48 H48        -7.0149    3.3468   49.8048 H       1  ZINC000573650873    0.1000
     49 H49        -8.7703    3.6256   49.9002 H       1  ZINC000573650873    0.1200
     50 H50        -7.3555    4.9399   47.7926 H       1  ZINC000573650873    0.3900
@<TRIPOS>BOND
     1     1     2    1
     2     1    30    1
     3     1    31    1
     4     1    32    1
     5     2     3    1
     6     2     4    1
     7     2     5    1
     8     3    33    1
     9     3    34    1
    10     3    35    1
    11     4    36    1
    12     4    37    1
    13     4    38    1
    14     5    29    1
    15     5     6    2
    16     6     7    1
    17     6    39    1
    18     7     8    1
    19     7    28    2
    20     8     9    2
    21     8    10   am
    22    10    11    1
    23    10    20    1
    24    11    12    1
    25    11    40    1
    26    11    41    1
    27    12    13    1
    28    12    42    1
    29    12    43    1
    30    13    19   ar
    31    13    14   ar
    32    14    15   ar
    33    14    44    1
    34    15    16   ar
    35    15    45    1
    36    16    17    1
    37    16    18   ar
    38    18    19   ar
    39    18    46    1
    40    19    47    1
    41    20    21    1
    42    20    48    1
    43    20    49    1
    44    21    22    1
    45    21    23    1
    46    21    24    1
    47    23    50    1
    48    24    25    1
    49    24    26    1
    50    24    27    1
    51    28    29    1
@<TRIPOS>SUBSTRUCTURE
     1 ZINC000573650873        1 TEMP              0 ****  ****    0 ROOT


##########                                Name:    ZINC000151850193
##########                DOCK_Rotatable_Bonds:                  11
##########                         Heavy_Atoms:                  23
##########                    Molecular_Weight:             328.452
##########                DOCK_Rotatable_Bonds:                  11
##########                       Formal_Charge:            0.039999
##########                     HBond_Acceptors:                   6
##########                        HBond_Donors:                   2
##########                         Heavy_Atoms:                  23
##########                          Grid_Score:          -27.948301
##########                     Grid_vdw_energy:          -27.325178
##########                      Grid_es_energy:           -0.623123
##########           Internal_energy_repulsive:           29.140657

@<TRIPOS>MOLECULE
ZINC000151850193
 55 55 1 0 0
SMALL
USER_CHARGES


@<TRIPOS>ATOM
      1 C1         -8.9516    0.4689   61.2447 C.3     1  ZINC000151850193   -0.1500
      2 C2         -9.2561   -0.4056   60.0267 C.3     1  ZINC000151850193   -0.1000
      3 C3         -9.6398    0.4845   58.8429 C.3     1  ZINC000151850193   -0.0800
      4 C4         -8.6474    1.6257   58.6113 C.3     1  ZINC000151850193   -0.1000
      5 C5         -7.2624    1.0454   58.3179 C.3     1  ZINC000151850193   -0.1500
      6 C6         -9.9855   -0.3020   57.5674 C.3     1  ZINC000151850193    0.1400
      7 H7         -9.5143   -1.2837   57.5186 H       1  ZINC000151850193    0.1000
      8 N8         -9.8149    0.4728   56.3359 N.am    1  ZINC000151850193   -0.7000
      9 C9         -9.8401   -0.1483   55.1400 C.2     1  ZINC000151850193    0.5200
     10 O10       -10.0024   -1.3489   55.0836 O.2     1  ZINC000151850193   -0.5300
     11 C11        -9.6663    0.6489   53.8730 C.3     1  ZINC000151850193   -0.1500
     12 C12        -8.6819   -0.0705   52.9487 C.3     1  ZINC000151850193    0.1500
     13 N13        -7.3776    0.5934   53.0129 N.am    1  ZINC000151850193   -0.7100
     14 C14        -6.4767    0.4055   52.0282 C.2     1  ZINC000151850193    0.6500
     15 O15        -6.7458   -0.3155   51.0880 O.2     1  ZINC000151850193   -0.5600
     16 O16        -5.2785    1.0168   52.0864 O.3     1  ZINC000151850193   -0.3700
     17 C17        -5.2334    2.4166   51.7033 C.3     1  ZINC000151850193    0.1400
     18 C18        -6.4253    2.7366   50.7989 C.3     1  ZINC000151850193   -0.1800
     19 C19        -5.2957    3.2909   52.9573 C.3     1  ZINC000151850193   -0.1400
     20 C20        -3.9316    2.6975   50.9499 C.3     1  ZINC000151850193   -0.1800
     21 C21       -11.4356   -0.3395   58.0780 C.3     1  ZINC000151850193   -0.1700
     22 C22       -11.1084    0.9402   58.8654 C.3     1  ZINC000151850193    0.0700
     23 H23       -11.5437    0.9614   59.8646 H       1  ZINC000151850193    0.0800
     24 O24       -11.3481    2.1419   58.1301 O.3     1  ZINC000151850193   -0.3700
     25 C25       -12.2419    3.0504   58.7765 C.3     1  ZINC000151850193    0.0300
     26 H26        -8.1043    1.1180   61.0233 H       1  ZINC000151850193    0.0600
     27 H27        -9.8238    1.0782   61.4816 H       1  ZINC000151850193    0.0600
     28 H28        -8.7098   -0.1664   62.0967 H       1  ZINC000151850193    0.0600
     29 H29        -8.3732   -0.9910   59.7699 H       1  ZINC000151850193    0.0700
     30 H30       -10.0825   -1.0772   60.2590 H       1  ZINC000151850193    0.0700
     31 H31        -8.9764    2.2271   57.7639 H       1  ZINC000151850193    0.0700
     32 H32        -8.5980    2.2507   59.5030 H       1  ZINC000151850193    0.0700
     33 H33        -6.9022    0.5047   59.1931 H       1  ZINC000151850193    0.0500
     34 H34        -7.3266    0.3631   57.4702 H       1  ZINC000151850193    0.0500
     35 H35        -6.5719    1.8550   58.0814 H       1  ZINC000151850193    0.0500
     36 H36        -9.6839    1.4328   56.3811 H       1  ZINC000151850193    0.4100
     37 H37       -10.6290    0.7485   53.3715 H       1  ZINC000151850193    0.1000
     38 H38        -9.2794    1.6384   54.1164 H       1  ZINC000151850193    0.1000
     39 H39        -8.5776   -1.1081   53.2659 H       1  ZINC000151850193    0.0800
     40 H40        -9.0554   -0.0393   51.9252 H       1  ZINC000151850193    0.0800
     41 H41        -7.1622    1.1680   53.7641 H       1  ZINC000151850193    0.4100
     42 H42        -7.3526    2.5364   51.3356 H       1  ZINC000151850193    0.0600
     43 H43        -6.3914    3.7873   50.5113 H       1  ZINC000151850193    0.0700
     44 H44        -6.3809    2.1136   49.9054 H       1  ZINC000151850193    0.0900
     45 H45        -4.4466    3.0630   53.6017 H       1  ZINC000151850193    0.0700
     46 H46        -5.2618    4.3417   52.6698 H       1  ZINC000151850193    0.0800
     47 H47        -6.2230    3.0908   53.4941 H       1  ZINC000151850193    0.0700
     48 H48        -3.8873    2.0747   50.0565 H       1  ZINC000151850193    0.0900
     49 H49        -3.8978    3.7483   50.6622 H       1  ZINC000151850193    0.0700
     50 H50        -3.0825    2.4696   51.5942 H       1  ZINC000151850193    0.0600
     51 H51       -12.1784   -0.1918   57.2941 H       1  ZINC000151850193    0.0800
     52 H52       -11.6531   -1.1988   58.7122 H       1  ZINC000151850193    0.1000
     53 H53       -13.2071    2.5664   58.9252 H       1  ZINC000151850193    0.0400
     54 H54       -11.8287    3.3413   59.7423 H       1  ZINC000151850193    0.0400
     55 H55       -12.3716    3.9364   58.1551 H       1  ZINC000151850193    0.0900
@<TRIPOS>BOND
     1     1     2    1
     2     1    26    1
     3     1    27    1
     4     1    28    1
     5     2     3    1
     6     2    29    1
     7     2    30    1
     8     3    22    1
     9     3     4    1
    10     3     6    1
    11     4     5    1
    12     4    31    1
    13     4    32    1
    14     5    33    1
    15     5    34    1
    16     5    35    1
    17     6     7    1
    18     6     8    1
    19     6    21    1
    20     8     9   am
    21     8    36    1
    22     9    10    2
    23     9    11    1
    24    11    12    1
    25    11    37    1
    26    11    38    1
    27    12    13    1
    28    12    39    1
    29    12    40    1
    30    13    14   am
    31    13    41    1
    32    14    15    2
    33    14    16    1
    34    16    17    1
    35    17    18    1
    36    17    19    1
    37    17    20    1
    38    18    42    1
    39    18    43    1
    40    18    44    1
    41    19    45    1
    42    19    46    1
    43    19    47    1
    44    20    48    1
    45    20    49    1
    46    20    50    1
    47    21    22    1
    48    21    51    1
    49    21    52    1
    50    22    23    1
    51    22    24    1
    52    24    25    1
    53    25    53    1
    54    25    54    1
    55    25    55    1
@<TRIPOS>SUBSTRUCTURE
     1 ZINC000151850193        1 TEMP              0 ****  ****    0 ROOT


##########                                Name:    ZINC000906038034
##########                DOCK_Rotatable_Bonds:                   5
##########                         Heavy_Atoms:                  23
##########                    Molecular_Weight:             387.428
##########                DOCK_Rotatable_Bonds:                   5
##########                       Formal_Charge:         -0.00999987
##########                     HBond_Acceptors:                  12
##########                        HBond_Donors:                   0
##########                         Heavy_Atoms:                  23
##########                          Grid_Score:          -27.896824
##########                     Grid_vdw_energy:          -25.546841
##########                      Grid_es_energy:           -2.349983
##########           Internal_energy_repulsive:            3.370485

@<TRIPOS>MOLECULE
ZINC000906038034
 35 36 1 0 0
SMALL
USER_CHARGES


@<TRIPOS>ATOM
      1 C1          0.0165    2.6657   50.4960 C.3     1  ZINC000906038034    0.1000
      2 N2         -1.4263    2.5519   50.7236 N.pl3   1  ZINC000906038034   -0.3700
      3 C3         -2.3011    1.8816   49.9426 C.2     1  ZINC000906038034    0.0600
      4 C4         -3.5307    2.0127   50.4849 C.2     1  ZINC000906038034   -0.2500
      5 C5         -3.4077    2.7976   51.6501 C.2     1  ZINC000906038034    0.1200
      6 C6         -4.5091    3.1899   52.5558 C.2     1  ZINC000906038034    0.1500
      7 N7         -5.7727    2.9431   52.3602 N.2     1  ZINC000906038034   -0.4300
      8 C8         -6.6128    3.3688   53.2760 C.2     1  ZINC000906038034    0.0600
      9 C9         -8.0989    3.1450   53.1647 C.3     1  ZINC000906038034   -0.5300
     10 S10        -8.5399    1.5914   53.9907 S.o2    1  ZINC000906038034    2.4200
     11 O11        -9.9539    1.4520   53.9678 O.2     1  ZINC000906038034   -0.9100
     12 O12        -7.7315    0.5507   53.4592 O.2     1  ZINC000906038034   -0.9200
     13 C13        -8.0185    1.9135   55.6980 C.3     1  ZINC000906038034   -0.6100
     14 C14        -8.8373    1.0439   56.6542 C.3     1  ZINC000906038034   -0.4500
     15 S15        -8.1201    1.1341   58.3179 S.o     1  ZINC000906038034    1.3300
     16 O16        -6.8085    0.5876   58.2986 O.2     1  ZINC000906038034   -0.7600
     17 C17        -9.2092    0.0577   59.2905 C.3     1  ZINC000906038034    0.1200
     18 F18        -9.1790   -1.2371   58.7614 F       1  ZINC000906038034   -0.1900
     19 F19        -8.7712    0.0289   60.6189 F       1  ZINC000906038034   -0.1700
     20 F20       -10.5174    0.5511   59.2414 F       1  ZINC000906038034   -0.1600
     21 C21        -6.0676    4.0124   54.3129 C.2     1  ZINC000906038034   -0.2300
     22 S22        -4.3217    4.0594   54.0765 S.3     1  ZINC000906038034    0.1600
     23 N23        -2.1363    3.1145   51.7919 N.2     1  ZINC000906038034   -0.2400
     24 H24         0.5286    1.8409   50.9916 H       1  ZINC000906038034    0.0800
     25 H25         0.2195    2.6287   49.4257 H       1  ZINC000906038034    0.0900
     26 H26         0.3747    3.6120   50.9013 H       1  ZINC000906038034    0.0900
     27 H27        -2.0595    1.3366   49.0421 H       1  ZINC000906038034    0.1800
     28 H28        -4.4458    1.5918   50.0953 H       1  ZINC000906038034    0.1600
     29 H29        -8.6274    3.9717   53.6393 H       1  ZINC000906038034    0.1500
     30 H30        -8.3802    3.0900   52.1131 H       1  ZINC000906038034    0.1600
     31 H31        -6.9603    1.6751   55.8059 H       1  ZINC000906038034    0.1500
     32 H32        -8.1798    2.9652   55.9349 H       1  ZINC000906038034    0.1500
     33 H33        -9.8658    1.4036   56.6818 H       1  ZINC000906038034    0.1600
     34 H34        -8.8231    0.0105   56.3078 H       1  ZINC000906038034    0.1300
     35 H35        -6.6042    4.4281   55.1530 H       1  ZINC000906038034    0.1900
@<TRIPOS>BOND
     1     1     2    1
     2     1    24    1
     3     1    25    1
     4     1    26    1
     5     2    23    1
     6     2     3    1
     7     3     4    2
     8     3    27    1
     9     4     5    1
    10     4    28    1
    11     5     6    1
    12     5    23    2
    13     6    22    1
    14     6     7    2
    15     7     8    1
    16     8     9    1
    17     8    21    2
    18     9    10    1
    19     9    29    1
    20     9    30    1
    21    10    11    2
    22    10    12    2
    23    10    13    1
    24    13    14    1
    25    13    31    1
    26    13    32    1
    27    14    15    1
    28    14    33    1
    29    14    34    1
    30    15    16    2
    31    15    17    1
    32    17    18    1
    33    17    19    1
    34    17    20    1
    35    21    22    1
    36    21    35    1
@<TRIPOS>SUBSTRUCTURE
     1 ZINC000906038034        1 TEMP              0 ****  ****    0 ROOT


##########                                Name:    ZINC000979274057
##########                DOCK_Rotatable_Bonds:                   6
##########                         Heavy_Atoms:                  24
##########                    Molecular_Weight:              330.39
##########                DOCK_Rotatable_Bonds:                   6
##########                       Formal_Charge:          0.00999946
##########                     HBond_Acceptors:                   8
##########                        HBond_Donors:                   1
##########                         Heavy_Atoms:                  24
##########                          Grid_Score:          -27.890940
##########                     Grid_vdw_energy:          -27.003891
##########                      Grid_es_energy:           -0.887048
##########           Internal_energy_repulsive:            8.751578

@<TRIPOS>MOLECULE
ZINC000979274057
 46 48 1 0 0
SMALL
USER_CHARGES


@<TRIPOS>ATOM
      1 C1         -2.7654    2.3673   50.7461 C.3     1  ZINC000979274057   -0.1400
      2 C2         -3.5574    3.2201   51.7392 C.3     1  ZINC000979274057    0.1000
      3 H3         -3.2884    4.2688   51.6130 H       1  ZINC000979274057    0.0600
      4 N4         -3.2424    2.7953   53.1097 N.3     1  ZINC000979274057   -0.6700
      5 C5         -3.1521    3.9514   54.0115 C.3     1  ZINC000979274057    0.1300
      6 C6         -2.6928    3.4929   55.3716 C.ar    1  ZINC000979274057    0.3200
      7 N7         -1.8964    2.4464   55.4606 N.ar    1  ZINC000979274057   -0.5200
      8 C8         -1.4728    2.0150   56.6376 C.ar    1  ZINC000979274057    0.1500
      9 C9         -1.8776    2.6793   57.7848 C.ar    1  ZINC000979274057   -0.2300
     10 C10        -2.7152    3.7754   57.6508 C.ar    1  ZINC000979274057    0.1500
     11 N11        -3.0937    4.1522   56.4401 N.ar    1  ZINC000979274057   -0.5000
     12 C12        -5.0553    3.0434   51.4821 C.3     1  ZINC000979274057    0.0800
     13 H13        -5.2027    2.4935   50.5526 H       1  ZINC000979274057    0.0700
     14 C14        -5.7221    4.4195   51.3742 C.3     1  ZINC000979274057    0.0800
     15 N15        -7.1796    4.2255   51.3156 N.am    1  ZINC000979274057   -0.6000
     16 C16        -7.9194    4.8114   50.3534 C.2     1  ZINC000979274057    0.6100
     17 O17        -7.3834    5.5128   49.5167 O.2     1  ZINC000979274057   -0.5400
     18 C18        -9.3771    4.6022   50.3148 C.2     1  ZINC000979274057   -0.0600
     19 C19       -10.0722    3.9460   49.3416 C.2     1  ZINC000979274057    0.0400
     20 N20       -11.3779    3.9850   49.6971 N.pl3   1  ZINC000979274057   -0.4600
     21 C21       -12.4950    3.4044   48.9479 C.3     1  ZINC000979274057    0.0700
     22 C22       -11.4665    4.6586   50.8735 C.2     1  ZINC000979274057    0.1900
     23 N23       -10.2729    5.0224   51.2444 N.2     1  ZINC000979274057   -0.4600
     24 C24        -7.8056    3.3726   52.3384 C.3     1  ZINC000979274057    0.0500
     25 C25        -7.0371    2.0475   52.3993 C.3     1  ZINC000979274057    0.0500
     26 O26        -5.6432    2.3179   52.5646 O.3     1  ZINC000979274057   -0.3600
     27 H27        -1.6983    2.4933   50.9293 H       1  ZINC000979274057    0.0600
     28 H28        -3.0343    1.3186   50.8723 H       1  ZINC000979274057    0.0700
     29 H29        -2.9991    2.6825   49.7291 H       1  ZINC000979274057    0.0600
     30 H30        -3.9193    2.1267   53.4456 H       1  ZINC000979274057    0.3500
     31 H31        -2.4378    4.6704   53.6101 H       1  ZINC000979274057    0.1000
     32 H32        -4.1314    4.4219   54.0982 H       1  ZINC000979274057    0.0600
     33 H33        -0.8206    1.1567   56.7036 H       1  ZINC000979274057    0.1700
     34 H34        -1.5487    2.3504   58.7594 H       1  ZINC000979274057    0.1500
     35 H35        -3.0512    4.3171   58.5226 H       1  ZINC000979274057    0.1700
     36 H36        -5.4666    5.0207   52.2468 H       1  ZINC000979274057    0.0700
     37 H37        -5.3820    4.9223   50.4689 H       1  ZINC000979274057    0.1000
     38 H38        -9.6599    3.4841   48.4568 H       1  ZINC000979274057    0.1900
     39 H39       -12.6584    2.3780   49.2763 H       1  ZINC000979274057    0.0800
     40 H40       -13.3962    3.9909   49.1266 H       1  ZINC000979274057    0.0900
     41 H41       -12.2616    3.4124   47.8832 H       1  ZINC000979274057    0.0900
     42 H42       -12.3794    4.8568   51.4155 H       1  ZINC000979274057    0.2100
     43 H43        -7.7599    3.8684   53.3081 H       1  ZINC000979274057    0.0700
     44 H44        -8.8451    3.1823   52.0716 H       1  ZINC000979274057    0.1500
     45 H45        -7.3960    1.4570   53.2423 H       1  ZINC000979274057    0.1100
     46 H46        -7.1927    1.4937   51.4735 H       1  ZINC000979274057    0.0500
@<TRIPOS>BOND
     1     1     2    1
     2     1    27    1
     3     1    28    1
     4     1    29    1
     5     2     3    1
     6     2     4    1
     7     2    12    1
     8     4     5    1
     9     4    30    1
    10     5     6    1
    11     5    31    1
    12     5    32    1
    13     6    11   ar
    14     6     7   ar
    15     7     8   ar
    16     8     9   ar
    17     8    33    1
    18     9    10   ar
    19     9    34    1
    20    10    11   ar
    21    10    35    1
    22    12    13    1
    23    12    26    1
    24    12    14    1
    25    14    15    1
    26    14    36    1
    27    14    37    1
    28    15    16   am
    29    15    24    1
    30    16    17    2
    31    16    18    1
    32    18    23    1
    33    18    19    2
    34    19    20    1
    35    19    38    1
    36    20    21    1
    37    20    22    1
    38    21    39    1
    39    21    40    1
    40    21    41    1
    41    22    23    2
    42    22    42    1
    43    24    25    1
    44    24    43    1
    45    24    44    1
    46    25    26    1
    47    25    45    1
    48    25    46    1
@<TRIPOS>SUBSTRUCTURE
     1 ZINC000979274057        1 TEMP              0 ****  ****    0 ROOT


##########                                Name:    ZINC001061022329
##########                DOCK_Rotatable_Bonds:                   7
##########                         Heavy_Atoms:                  27
##########                    Molecular_Weight:             374.523
##########                DOCK_Rotatable_Bonds:                   7
##########                       Formal_Charge:           0.0800005
##########                     HBond_Acceptors:                   5
##########                        HBond_Donors:                   0
##########                         Heavy_Atoms:                  27
##########                          Grid_Score:          -27.849115
##########                     Grid_vdw_energy:          -27.778542
##########                      Grid_es_energy:           -0.070574
##########           Internal_energy_repulsive:           20.463575

@<TRIPOS>MOLECULE
ZINC001061022329
 61 64 1 0 0
SMALL
USER_CHARGES


@<TRIPOS>ATOM
      1 C1         -3.8799    3.2450   53.0309 C.3     1  ZINC001061022329   -0.1500
      2 C2         -5.0874    4.1279   52.7092 C.3     1  ZINC001061022329   -0.1200
      3 C3         -6.3622    3.4549   53.2217 C.3     1  ZINC001061022329    0.0800
      4 H4         -7.1732    4.1829   53.2454 H       1  ZINC001061022329    0.0600
      5 C5         -6.7397    2.3012   52.2903 C.3     1  ZINC001061022329   -0.1800
      6 O6         -6.1374    2.9494   54.5393 O.3     1  ZINC001061022329   -0.3500
      7 C7         -7.3304    2.5665   55.2264 C.3     1  ZINC001061022329    0.0500
      8 C8         -7.0061    2.2662   56.6670 C.2     1  ZINC001061022329    0.5200
      9 O9         -5.8607    2.3409   57.0590 O.2     1  ZINC001061022329   -0.5100
     10 N10        -7.9886    1.9147   57.5199 N.am    1  ZINC001061022329   -0.6100
     11 C11        -7.6846    1.6239   58.9272 C.3     1  ZINC001061022329    0.1100
     12 C12        -8.2047    0.2215   59.2646 C.3     1  ZINC001061022329   -0.1200
     13 C13        -9.6734    0.1222   58.8595 C.3     1  ZINC001061022329   -0.0900
     14 C14       -10.3611   -1.1595   59.3495 C.3     1  ZINC001061022329    0.1200
     15 N15       -11.5075   -0.2919   59.6862 N.am    1  ZINC001061022329   -0.6400
     16 C16       -12.8319   -0.4931   59.8345 C.2     1  ZINC001061022329    0.5400
     17 O17       -13.5579    0.4349   60.1219 O.2     1  ZINC001061022329   -0.5300
     18 C18       -13.4107   -1.8713   59.6431 C.3     1  ZINC001061022329   -0.0900
     19 H19       -12.8552   -2.5859   60.2504 H       1  ZINC001061022329    0.1000
     20 C20       -13.3081   -2.2671   58.1684 C.3     1  ZINC001061022329   -0.1000
     21 C21       -14.7117   -2.5328   57.6092 C.3     1  ZINC001061022329   -0.0600
     22 H22       -14.6660   -2.7663   56.5455 H       1  ZINC001061022329    0.0800
     23 C23       -15.5537   -1.2891   57.8529 C.2     1  ZINC001061022329   -0.1800
     24 C24       -15.6430   -0.9449   59.1355 C.2     1  ZINC001061022329   -0.1300
     25 C25       -14.8834   -1.8713   60.0728 C.3     1  ZINC001061022329   -0.0400
     26 H26       -14.9938   -1.5491   61.1082 H       1  ZINC001061022329    0.0900
     27 C27       -15.4417   -3.2883   59.8814 C.3     1  ZINC001061022329   -0.1100
     28 C28       -15.3320   -3.6957   58.3957 C.3     1  ZINC001061022329   -0.1100
     29 C29       -10.6214    0.8840   59.7962 C.3     1  ZINC001061022329    0.1100
     30 C30        -9.9102    0.4161   57.3803 C.3     1  ZINC001061022329   -0.1100
     31 C31        -9.3794    1.8227   57.0567 C.3     1  ZINC001061022329    0.1100
     32 H32        -3.8087    3.1058   54.1097 H       1  ZINC001061022329    0.0500
     33 H33        -3.9990    2.2760   52.5465 H       1  ZINC001061022329    0.0600
     34 H34        -2.9717    3.7245   52.6658 H       1  ZINC001061022329    0.0600
     35 H35        -4.9682    5.0971   53.1936 H       1  ZINC001061022329    0.0800
     36 H36        -5.1585    4.2672   51.6305 H       1  ZINC001061022329    0.0700
     37 H37        -7.6478    1.8217   52.6554 H       1  ZINC001061022329    0.0600
     38 H38        -6.9112    2.6868   51.2854 H       1  ZINC001061022329    0.0700
     39 H39        -5.9288    1.5732   52.2667 H       1  ZINC001061022329    0.0700
     40 H40        -8.0542    3.3802   55.1789 H       1  ZINC001061022329    0.0800
     41 H41        -7.7514    1.6779   54.7559 H       1  ZINC001061022329    0.0800
     42 H42        -6.6065    1.6612   59.0834 H       1  ZINC001061022329    0.0900
     43 H43        -8.1742    2.3589   59.5663 H       1  ZINC001061022329    0.0800
     44 H44        -7.6251   -0.5231   58.7191 H       1  ZINC001061022329    0.0800
     45 H45        -8.1095    0.0456   60.3361 H       1  ZINC001061022329    0.0800
     46 H46       -10.5706   -1.8769   58.5561 H       1  ZINC001061022329    0.0800
     47 H47        -9.8816   -1.6114   60.2179 H       1  ZINC001061022329    0.0900
     48 H48       -12.8407   -1.4581   57.6070 H       1  ZINC001061022329    0.0700
     49 H49       -12.7036   -3.1694   58.0759 H       1  ZINC001061022329    0.0700
     50 H50       -16.0343   -0.7369   57.0589 H       1  ZINC001061022329    0.1200
     51 H51       -16.2024   -0.0872   59.4788 H       1  ZINC001061022329    0.1200
     52 H52       -14.8672   -3.9897   60.4863 H       1  ZINC001061022329    0.0700
     53 H53       -16.4863   -3.3120   60.1919 H       1  ZINC001061022329    0.0700
     54 H54       -16.3264   -3.9080   58.0030 H       1  ZINC001061022329    0.0700
     55 H55       -14.7096   -4.5863   58.3084 H       1  ZINC001061022329    0.0700
     56 H56       -10.2192    1.0394   60.7974 H       1  ZINC001061022329    0.0900
     57 H57       -11.0377    1.7910   59.3579 H       1  ZINC001061022329    0.0800
     58 H58        -9.3860   -0.3222   56.7735 H       1  ZINC001061022329    0.0800
     59 H59       -10.9782    0.3730   57.1666 H       1  ZINC001061022329    0.0800
     60 H60        -9.9895    2.5694   57.5650 H       1  ZINC001061022329    0.0700
     61 H61        -9.4167    1.9887   55.9801 H       1  ZINC001061022329    0.1000
@<TRIPOS>BOND
     1     1     2    1
     2     1    32    1
     3     1    33    1
     4     1    34    1
     5     2     3    1
     6     2    35    1
     7     2    36    1
     8     3     4    1
     9     3     5    1
    10     3     6    1
    11     5    37    1
    12     5    38    1
    13     5    39    1
    14     6     7    1
    15     7     8    1
    16     7    40    1
    17     7    41    1
    18     8     9    2
    19     8    10   am
    20    10    31    1
    21    10    11    1
    22    11    12    1
    23    11    42    1
    24    11    43    1
    25    12    13    1
    26    12    44    1
    27    12    45    1
    28    13    29    1
    29    13    14    1
    30    13    30    1
    31    14    15    1
    32    14    46    1
    33    14    47    1
    34    15    16   am
    35    15    29    1
    36    16    17    2
    37    16    18    1
    38    18    19    1
    39    18    25    1
    40    18    20    1
    41    20    21    1
    42    20    48    1
    43    20    49    1
    44    21    22    1
    45    21    28    1
    46    21    23    1
    47    23    24    2
    48    23    50    1
    49    24    25    1
    50    24    51    1
    51    25    26    1
    52    25    27    1
    53    27    28    1
    54    27    52    1
    55    27    53    1
    56    28    54    1
    57    28    55    1
    58    29    56    1
    59    29    57    1
    60    30    31    1
    61    30    58    1
    62    30    59    1
    63    31    60    1
    64    31    61    1
@<TRIPOS>SUBSTRUCTURE
     1 ZINC001061022329        1 TEMP              0 ****  ****    0 ROOT


##########                                Name:    ZINC000879023512
##########                DOCK_Rotatable_Bonds:                   4
##########                         Heavy_Atoms:                  20
##########                    Molecular_Weight:             346.156
##########                DOCK_Rotatable_Bonds:                   4
##########                       Formal_Charge:        -5.96046e-08
##########                     HBond_Acceptors:                   7
##########                        HBond_Donors:                   1
##########                         Heavy_Atoms:                  20
##########                          Grid_Score:          -27.826830
##########                     Grid_vdw_energy:          -27.900862
##########                      Grid_es_energy:            0.074032
##########           Internal_energy_repulsive:            4.601529

@<TRIPOS>MOLECULE
ZINC000879023512
 33 34 1 0 0
SMALL
USER_CHARGES


@<TRIPOS>ATOM
      1 O1         -1.8514    2.8892   51.8782 O.2     1  ZINC000879023512   -0.5600
      2 C2         -1.8982    2.3780   50.7760 C.2     1  ZINC000879023512    0.7200
      3 N3         -3.0884    2.0485   50.2361 N.am    1  ZINC000879023512   -0.6800
      4 C4         -4.2701    2.2899   50.9466 C.ar    1  ZINC000879023512    0.1800
      5 C5         -4.5439    3.5628   51.4288 C.ar    1  ZINC000879023512   -0.0900
      6 C6         -5.7107    3.7983   52.1297 C.ar    1  ZINC000879023512   -0.0700
      7 C7         -6.6058    2.7672   52.3518 C.ar    1  ZINC000879023512   -0.0700
      8 Br8        -8.2020    3.0933   53.3117 Br      1  ZINC000879023512    0.0200
      9 C9         -6.3353    1.4975   51.8723 C.ar    1  ZINC000879023512    0.0000
     10 N10        -7.2954    0.3967   52.1118 N.pl3   1  ZINC000879023512    0.0200
     11 O11        -7.0579   -0.7210   51.6900 O.2     1  ZINC000879023512   -0.1500
     12 O12        -8.3228    0.6084   52.7306 O.2     1  ZINC000879023512   -0.1300
     13 C13        -5.1734    1.2580   51.1656 C.ar    1  ZINC000879023512   -0.0500
     14 N14        -0.7605    2.1456   50.0920 N.am    1  ZINC000879023512   -0.6300
     15 C15        -0.6734    1.5477   48.7516 C.3     1  ZINC000879023512    0.0900
     16 C16         0.8233    1.4547   48.3877 C.3     1  ZINC000879023512   -0.1200
     17 C17         1.5203    1.4832   49.7736 C.3     1  ZINC000879023512   -0.1400
     18 H18         1.5272    0.4924   50.2279 H       1  ZINC000879023512    0.1000
     19 C19         2.9402    2.0420   49.6621 C.3     1  ZINC000879023512    0.0700
     20 F20         3.5922    1.9079   50.8925 F       1  ZINC000879023512   -0.2100
     21 C21         0.6025    2.4548   50.5610 C.3     1  ZINC000879023512    0.1300
     22 H22        -3.1261    1.6444   49.3552 H       1  ZINC000879023512    0.4200
     23 H23        -3.8451    4.3680   51.2563 H       1  ZINC000879023512    0.1600
     24 H24        -5.9242    4.7883   52.5050 H       1  ZINC000879023512    0.1600
     25 H25        -4.9630    0.2670   50.7914 H       1  ZINC000879023512    0.1800
     26 H26        -1.1154    0.5514   48.7607 H       1  ZINC000879023512    0.0700
     27 H27        -1.1919    2.1788   48.0298 H       1  ZINC000879023512    0.0700
     28 H28         1.0365    0.5206   47.8680 H       1  ZINC000879023512    0.0900
     29 H29         1.1278    2.3106   47.7853 H       1  ZINC000879023512    0.0900
     30 H30         3.4887    1.4906   48.8983 H       1  ZINC000879023512    0.0800
     31 H31         2.8954    3.0959   49.3875 H       1  ZINC000879023512    0.0800
     32 H32         0.8618    3.4890   50.3346 H       1  ZINC000879023512    0.0800
     33 H33         0.6828    2.2684   51.6320 H       1  ZINC000879023512    0.0900
@<TRIPOS>BOND
     1     1     2    2
     2     2     3   am
     3     2    14   am
     4     3     4    1
     5     3    22    1
     6     4    13   ar
     7     4     5   ar
     8     5     6   ar
     9     5    23    1
    10     6     7   ar
    11     6    24    1
    12     7     8    1
    13     7     9   ar
    14     9    10    1
    15     9    13   ar
    16    10    11    2
    17    10    12    2
    18    13    25    1
    19    14    21    1
    20    14    15    1
    21    15    16    1
    22    15    26    1
    23    15    27    1
    24    16    17    1
    25    16    28    1
    26    16    29    1
    27    17    18    1
    28    17    19    1
    29    17    21    1
    30    19    20    1
    31    19    30    1
    32    19    31    1
    33    21    32    1
    34    21    33    1
@<TRIPOS>SUBSTRUCTURE
     1 ZINC000879023512        1 TEMP              0 ****  ****    0 ROOT


##########                                Name:    ZINC000291574087
##########                DOCK_Rotatable_Bonds:                   8
##########                         Heavy_Atoms:                  23
##########                    Molecular_Weight:             387.249
##########                DOCK_Rotatable_Bonds:                   8
##########                       Formal_Charge:          -0.0400007
##########                     HBond_Acceptors:                   6
##########                        HBond_Donors:                   2
##########                         Heavy_Atoms:                  23
##########                          Grid_Score:          -27.822542
##########                     Grid_vdw_energy:          -28.950808
##########                      Grid_es_energy:            1.128266
##########           Internal_energy_repulsive:           28.715309

@<TRIPOS>MOLECULE
ZINC000291574087
 43 44 1 0 0
SMALL
USER_CHARGES


@<TRIPOS>ATOM
      1 C1          2.4897    0.2207   48.2525 C.3     1  ZINC000291574087    0.0200
      2 O2          2.1851    0.6096   49.5935 O.3     1  ZINC000291574087   -0.3700
      3 C3          2.6373    1.9215   49.9351 C.3     1  ZINC000291574087    0.1400
      4 C4          2.7155    2.0536   51.4573 C.3     1  ZINC000291574087   -0.1500
      5 C5          1.6574    2.9586   49.3828 C.3     1  ZINC000291574087    0.0900
      6 N6          0.4345    2.9531   50.1893 N.am    1  ZINC000291574087   -0.6900
      7 C7         -0.6322    2.2318   49.7911 C.2     1  ZINC000291574087    0.5100
      8 O8         -0.5800    1.5880   48.7637 O.2     1  ZINC000291574087   -0.5100
      9 C9         -1.8782    2.2248   50.6143 C.2     1  ZINC000291574087    0.5100
     10 O10        -1.8138    2.3948   51.8144 O.2     1  ZINC000291574087   -0.4900
     11 N11        -3.0743    2.0298   50.0245 N.am    1  ZINC000291574087   -0.6400
     12 C12        -4.2412    2.0232   50.7953 C.ar    1  ZINC000291574087    0.1300
     13 C13        -4.9944    0.8623   50.9074 C.ar    1  ZINC000291574087   -0.1000
     14 C14        -6.1465    0.8584   51.6700 C.ar    1  ZINC000291574087   -0.0400
     15 C15        -6.9638   -0.4018   51.7915 C.3     1  ZINC000291574087   -0.1300
     16 C16        -6.5508    2.0093   52.3224 C.ar    1  ZINC000291574087   -0.0900
     17 Br17       -8.1279    1.9976   53.3657 Br      1  ZINC000291574087   -0.0300
     18 C18        -5.8034    3.1690   52.2138 C.ar    1  ZINC000291574087   -0.1000
     19 C19        -4.6469    3.1786   51.4563 C.ar    1  ZINC000291574087    0.0700
     20 F20        -3.9171    4.3105   51.3501 F       1  ZINC000291574087   -0.1300
     21 C21         4.0231    2.1566   49.3309 C.3     1  ZINC000291574087   -0.1900
     22 C22         5.1247    2.6611   50.2650 C.3     1  ZINC000291574087   -0.1700
     23 C23         5.1506    1.2164   49.7620 C.3     1  ZINC000291574087   -0.1600
     24 H24         2.1135   -0.7863   48.0719 H       1  ZINC000291574087    0.0900
     25 H25         2.0180    0.9149   47.5568 H       1  ZINC000291574087    0.0400
     26 H26         3.5696    0.2369   48.1059 H       1  ZINC000291574087    0.0500
     27 H27         3.4135    1.3147   51.8508 H       1  ZINC000291574087    0.0700
     28 H28         3.0604    3.0542   51.7179 H       1  ZINC000291574087    0.0800
     29 H29         1.7282    1.8861   51.8878 H       1  ZINC000291574087    0.0700
     30 H30         2.1143    3.9474   49.4224 H       1  ZINC000291574087    0.0900
     31 H31         1.4122    2.7128   48.3496 H       1  ZINC000291574087    0.0800
     32 H32         0.3924    3.4686   51.0099 H       1  ZINC000291574087    0.4200
     33 H33        -3.1259    1.8941   49.0654 H       1  ZINC000291574087    0.4300
     34 H34        -4.6801   -0.0369   50.3986 H       1  ZINC000291574087    0.1600
     35 H35        -6.6138   -0.9809   52.6460 H       1  ZINC000291574087    0.0800
     36 H36        -8.0129   -0.1422   51.9337 H       1  ZINC000291574087    0.0800
     37 H37        -6.8560   -0.9939   50.8827 H       1  ZINC000291574087    0.0800
     38 H38        -6.1218    4.0660   52.7240 H       1  ZINC000291574087    0.1500
     39 H39         4.0325    2.5150   48.3015 H       1  ZINC000291574087    0.1100
     40 H40         5.8591    3.3517   49.8505 H       1  ZINC000291574087    0.1000
     41 H41         4.8622    2.8256   51.3101 H       1  ZINC000291574087    0.1000
     42 H42         4.9050    0.4304   50.4760 H       1  ZINC000291574087    0.1000
     43 H43         5.9019    0.9566   49.0163 H       1  ZINC000291574087    0.1000
@<TRIPOS>BOND
     1     1     2    1
     2     1    24    1
     3     1    25    1
     4     1    26    1
     5     2     3    1
     6     3     4    1
     7     3     5    1
     8     3    21    1
     9     4    27    1
    10     4    28    1
    11     4    29    1
    12     5     6    1
    13     5    30    1
    14     5    31    1
    15     6     7   am
    16     6    32    1
    17     7     8    2
    18     7     9    1
    19     9    10    2
    20     9    11   am
    21    11    12    1
    22    11    33    1
    23    12    19   ar
    24    12    13   ar
    25    13    14   ar
    26    13    34    1
    27    14    15    1
    28    14    16   ar
    29    15    35    1
    30    15    36    1
    31    15    37    1
    32    16    17    1
    33    16    18   ar
    34    18    19   ar
    35    18    38    1
    36    19    20    1
    37    21    23    1
    38    21    22    1
    39    21    39    1
    40    22    23    1
    41    22    40    1
    42    22    41    1
    43    23    42    1
    44    23    43    1
@<TRIPOS>SUBSTRUCTURE
     1 ZINC000291574087        1 TEMP              0 ****  ****    0 ROOT


##########                                Name:    ZINC000939075213
##########                DOCK_Rotatable_Bonds:                   7
##########                         Heavy_Atoms:                  24
##########                    Molecular_Weight:             327.426
##########                DOCK_Rotatable_Bonds:                   7
##########                       Formal_Charge:          -0.0200002
##########                     HBond_Acceptors:                   5
##########                        HBond_Donors:                   2
##########                         Heavy_Atoms:                  24
##########                          Grid_Score:          -27.820333
##########                     Grid_vdw_energy:          -26.697468
##########                      Grid_es_energy:           -1.122866
##########           Internal_energy_repulsive:           12.904845

@<TRIPOS>MOLECULE
ZINC000939075213
 49 51 1 0 0
SMALL
USER_CHARGES


@<TRIPOS>ATOM
      1 C1         -1.8955    4.9796   54.8539 C.3     1  ZINC000939075213   -0.1400
      2 C2         -2.4284    3.8111   54.0224 C.3     1  ZINC000939075213   -0.1100
      3 H3         -2.3382    2.8722   54.5688 H       1  ZINC000939075213    0.0900
      4 C4         -1.7069    3.7288   52.6541 C.3     1  ZINC000939075213    0.1100
      5 N5         -2.6598    3.0385   51.7659 N.am    1  ZINC000939075213   -0.6200
      6 C6         -2.3380    2.3446   50.6562 C.2     1  ZINC000939075213    0.5600
      7 O7         -3.2119    1.8116   49.9965 O.2     1  ZINC000939075213   -0.5400
      8 C8         -0.9845    2.2355   50.2575 C.2     1  ZINC000939075213   -0.2600
      9 C9         -0.6701    1.6353   49.0827 C.2     1  ZINC000939075213    0.0400
     10 C10         0.6848    1.5259   48.6834 C.2     1  ZINC000939075213    0.0000
     11 C11         1.7850    1.9714   49.3926 C.2     1  ZINC000939075213   -0.1500
     12 C12         2.9167    1.6594   48.6335 C.2     1  ZINC000939075213   -0.2200
     13 C13         2.5014    1.0434   47.5003 C.2     1  ZINC000939075213    0.0200
     14 N14         1.1472    0.9511   47.5207 N.pl3   1  ZINC000939075213   -0.5000
     15 C15        -4.0192    3.2315   52.2918 C.3     1  ZINC000939075213    0.0900
     16 C16        -3.8963    4.0623   53.5870 C.3     1  ZINC000939075213    0.1400
     17 H17        -4.0619    5.1203   53.3836 H       1  ZINC000939075213    0.1100
     18 N18        -4.8338    3.5790   54.6037 N.am    1  ZINC000939075213   -0.7200
     19 C19        -5.9081    4.3214   54.9370 C.2     1  ZINC000939075213    0.5300
     20 O20        -6.0980    5.3903   54.3963 O.2     1  ZINC000939075213   -0.5300
     21 C21        -6.8734    3.8234   55.9816 C.3     1  ZINC000939075213   -0.0600
     22 C22        -7.6770    4.9888   56.5620 C.3     1  ZINC000939075213   -0.1300
     23 C23        -7.7989    2.7852   55.3909 C.2     1  ZINC000939075213   -0.1700
     24 C24        -7.9271    1.7610   56.1897 C.2     1  ZINC000939075213   -0.1400
     25 C25        -7.1085    1.9451   57.4463 C.3     1  ZINC000939075213   -0.1100
     26 C26        -6.1148    3.0798   57.1053 C.3     1  ZINC000939075213   -0.1100
     27 H27        -2.4738    5.0644   55.7740 H       1  ZINC000939075213    0.0600
     28 H28        -0.8478    4.8036   55.0982 H       1  ZINC000939075213    0.0700
     29 H29        -1.9850    5.9031   54.2821 H       1  ZINC000939075213    0.0600
     30 H30        -1.4931    4.7289   52.2771 H       1  ZINC000939075213    0.0700
     31 H31        -0.7866    3.1519   52.7447 H       1  ZINC000939075213    0.0800
     32 H32        -0.2021    2.6302   50.8886 H       1  ZINC000939075213    0.1300
     33 H33        -1.4526    1.2406   48.4515 H       1  ZINC000939075213    0.1500
     34 H34         1.7725    2.4674   50.3519 H       1  ZINC000939075213    0.1400
     35 H35         3.9408    1.8717   48.9026 H       1  ZINC000939075213    0.1400
     36 H36         3.1436    0.6815   46.7109 H       1  ZINC000939075213    0.1600
     37 H37         0.5967    0.5520   46.8289 H       1  ZINC000939075213    0.4100
     38 H38        -4.6259    3.7684   51.5625 H       1  ZINC000939075213    0.0800
     39 H39        -4.4715    2.2649   52.5137 H       1  ZINC000939075213    0.0700
     40 H40        -4.6814    2.7246   55.0370 H       1  ZINC000939075213    0.4000
     41 H41        -8.2273    5.4847   55.7623 H       1  ZINC000939075213    0.0600
     42 H42        -8.3784    4.6116   57.3061 H       1  ZINC000939075213    0.0700
     43 H43        -6.9977    5.7006   57.0310 H       1  ZINC000939075213    0.0600
     44 H44        -8.2901    2.8787   54.4336 H       1  ZINC000939075213    0.1300
     45 H45        -8.5383    0.8956   55.9801 H       1  ZINC000939075213    0.1300
     46 H46        -7.7496    2.2390   58.2775 H       1  ZINC000939075213    0.0800
     47 H47        -6.5703    1.0284   57.6866 H       1  ZINC000939075213    0.0800
     48 H48        -5.1707    2.6761   56.7392 H       1  ZINC000939075213    0.0900
     49 H49        -5.9532    3.7299   57.9651 H       1  ZINC000939075213    0.0800
@<TRIPOS>BOND
     1     1     2    1
     2     1    27    1
     3     1    28    1
     4     1    29    1
     5     2     3    1
     6     2    16    1
     7     2     4    1
     8     4     5    1
     9     4    30    1
    10     4    31    1
    11     5     6   am
    12     5    15    1
    13     6     7    2
    14     6     8    1
    15     8     9    2
    16     8    32    1
    17     9    10    1
    18     9    33    1
    19    10    14    1
    20    10    11    2
    21    11    12    1
    22    11    34    1
    23    12    13    2
    24    12    35    1
    25    13    14    1
    26    13    36    1
    27    14    37    1
    28    15    16    1
    29    15    38    1
    30    15    39    1
    31    16    17    1
    32    16    18    1
    33    18    19   am
    34    18    40    1
    35    19    20    2
    36    19    21    1
    37    21    26    1
    38    21    22    1
    39    21    23    1
    40    22    41    1
    41    22    42    1
    42    22    43    1
    43    23    24    2
    44    23    44    1
    45    24    25    1
    46    24    45    1
    47    25    26    1
    48    25    46    1
    49    25    47    1
    50    26    48    1
    51    26    49    1
@<TRIPOS>SUBSTRUCTURE
     1 ZINC000939075213        1 TEMP              0 ****  ****    0 ROOT


##########                                Name:    ZINC000433533595
##########                DOCK_Rotatable_Bonds:                  10
##########                         Heavy_Atoms:                  24
##########                    Molecular_Weight:             397.312
##########                DOCK_Rotatable_Bonds:                  10
##########                       Formal_Charge:          0.00999916
##########                     HBond_Acceptors:                   5
##########                        HBond_Donors:                   1
##########                         Heavy_Atoms:                  24
##########                          Grid_Score:          -27.804642
##########                     Grid_vdw_energy:          -27.401018
##########                      Grid_es_energy:           -0.403623
##########           Internal_energy_repulsive:           20.757378

@<TRIPOS>MOLECULE
ZINC000433533595
 49 50 1 0 0
SMALL
USER_CHARGES


@<TRIPOS>ATOM
      1 C1        -16.5450    0.5897   60.6607 C.3     1  ZINC000433533595   -0.1500
      2 C2        -16.0004   -0.6229   59.9033 C.3     1  ZINC000433533595   -0.1200
      3 C3        -15.5287   -1.6798   60.9041 C.3     1  ZINC000433533595   -0.1300
      4 C4        -14.9606   -2.8817   60.1468 C.3     1  ZINC000433533595    0.1000
      5 N5        -13.9186   -2.4283   59.2222 N.am    1  ZINC000433533595   -0.5500
      6 C6        -12.7034   -2.0843   59.6927 C.2     1  ZINC000433533595    0.5100
      7 O7        -12.4723   -2.1501   60.8822 O.2     1  ZINC000433533595   -0.5100
      8 C8        -11.6412   -1.6221   58.7502 C.2     1  ZINC000433533595    0.5000
      9 O9        -10.7530   -2.3799   58.4179 O.2     1  ZINC000433533595   -0.4900
     10 N10       -11.6687   -0.3637   58.2685 N.am    1  ZINC000433533595   -0.6300
     11 C11       -10.6739    0.0692   57.3858 C.ar    1  ZINC000433533595    0.1200
     12 C12       -10.6792   -0.3608   56.0666 C.ar    1  ZINC000433533595   -0.0600
     13 C13        -9.6944    0.0688   55.1959 C.ar    1  ZINC000433533595   -0.1100
     14 Br14       -9.7034   -0.5178   53.3982 Br      1  ZINC000433533595   -0.0400
     15 C15        -8.7031    0.9270   55.6370 C.ar    1  ZINC000433533595   -0.0600
     16 C16        -8.6916    1.3596   56.9503 C.ar    1  ZINC000433533595   -0.1900
     17 C17        -9.6775    0.9386   57.8273 C.ar    1  ZINC000433533595    0.1300
     18 O18        -9.6672    1.3635   59.1190 O.3     1  ZINC000433533595   -0.3100
     19 C19        -9.1360    0.4636   60.0938 C.3     1  ZINC000433533595    0.0800
     20 C20        -7.9248   -0.2652   59.5085 C.3     1  ZINC000433533595   -0.1500
     21 C21        -8.7076    1.2502   61.3341 C.3     1  ZINC000433533595   -0.1800
     22 C22       -14.1976   -2.3488   57.7862 C.3     1  ZINC000433533595    0.0600
     23 C23       -13.4785   -3.3417   56.8709 C.3     1  ZINC000433533595   -0.1900
     24 C24       -14.9735   -3.5052   57.1523 C.3     1  ZINC000433533595   -0.1800
     25 H25       -15.7588    1.0092   61.2885 H       1  ZINC000433533595    0.0500
     26 H26       -16.8811    1.3425   59.9478 H       1  ZINC000433533595    0.0500
     27 H27       -17.3832    0.2812   61.2857 H       1  ZINC000433533595    0.0500
     28 H28       -16.7866   -1.0424   59.2756 H       1  ZINC000433533595    0.0700
     29 H29       -15.1622   -0.3145   59.2784 H       1  ZINC000433533595    0.0600
     30 H30       -14.7552   -1.2547   61.5438 H       1  ZINC000433533595    0.0600
     31 H31       -16.3707   -2.0013   61.5169 H       1  ZINC000433533595    0.0700
     32 H32       -14.5332   -3.5896   60.8569 H       1  ZINC000433533595    0.1100
     33 H33       -15.7585   -3.3674   59.5852 H       1  ZINC000433533595    0.0800
     34 H34       -12.3784    0.2419   58.5341 H       1  ZINC000433533595    0.4300
     35 H35       -11.4519   -1.0310   55.7200 H       1  ZINC000433533595    0.1600
     36 H36        -7.9357    1.2597   54.9536 H       1  ZINC000433533595    0.1400
     37 H37        -7.9161    2.0295   57.2912 H       1  ZINC000433533595    0.1500
     38 H38        -9.8991   -0.2639   60.3706 H       1  ZINC000433533595    0.0800
     39 H39        -7.1618    0.4623   59.2317 H       1  ZINC000433533595    0.0700
     40 H40        -7.5197   -0.9517   60.2520 H       1  ZINC000433533595    0.0800
     41 H41        -8.2300   -0.8257   58.6249 H       1  ZINC000433533595    0.0700
     42 H42        -7.9446    1.9778   61.0573 H       1  ZINC000433533595    0.0700
     43 H43        -9.5705    1.7696   61.7510 H       1  ZINC000433533595    0.0600
     44 H44        -8.3024    0.5639   62.0776 H       1  ZINC000433533595    0.0800
     45 H45       -14.3805   -1.3471   57.3975 H       1  ZINC000433533595    0.1400
     46 H46       -13.1880   -2.9933   55.8798 H       1  ZINC000433533595    0.0900
     47 H47       -12.7978   -4.0541   57.3372 H       1  ZINC000433533595    0.1400
     48 H48       -15.2763   -4.3249   57.8037 H       1  ZINC000433533595    0.1000
     49 H49       -15.6666   -3.2641   56.3463 H       1  ZINC000433533595    0.1000
@<TRIPOS>BOND
     1     1     2    1
     2     1    25    1
     3     1    26    1
     4     1    27    1
     5     2     3    1
     6     2    28    1
     7     2    29    1
     8     3     4    1
     9     3    30    1
    10     3    31    1
    11     4     5    1
    12     4    32    1
    13     4    33    1
    14     5     6   am
    15     5    22    1
    16     6     7    2
    17     6     8    1
    18     8     9    2
    19     8    10   am
    20    10    11    1
    21    10    34    1
    22    11    17   ar
    23    11    12   ar
    24    12    13   ar
    25    12    35    1
    26    13    14    1
    27    13    15   ar
    28    15    16   ar
    29    15    36    1
    30    16    17   ar
    31    16    37    1
    32    17    18    1
    33    18    19    1
    34    19    20    1
    35    19    21    1
    36    19    38    1
    37    20    39    1
    38    20    40    1
    39    20    41    1
    40    21    42    1
    41    21    43    1
    42    21    44    1
    43    22    24    1
    44    22    23    1
    45    22    45    1
    46    23    24    1
    47    23    46    1
    48    23    47    1
    49    24    48    1
    50    24    49    1
@<TRIPOS>SUBSTRUCTURE
     1 ZINC000433533595        1 TEMP              0 ****  ****    0 ROOT


##########                                Name:    ZINC000654672208
##########                DOCK_Rotatable_Bonds:                   5
##########                         Heavy_Atoms:                  25
##########                    Molecular_Weight:             365.497
##########                DOCK_Rotatable_Bonds:                   5
##########                       Formal_Charge:           0.0100001
##########                     HBond_Acceptors:                   7
##########                        HBond_Donors:                   1
##########                         Heavy_Atoms:                  25
##########                          Grid_Score:          -27.771704
##########                     Grid_vdw_energy:          -27.929001
##########                      Grid_es_energy:            0.157297
##########           Internal_energy_repulsive:           11.751657

@<TRIPOS>MOLECULE
ZINC000654672208
 52 54 1 0 0
SMALL
USER_CHARGES


@<TRIPOS>ATOM
      1 C1          1.5238    1.2129   48.3503 C.3     1  ZINC000654672208   -0.1100
      2 C2          0.5138    1.8255   49.2860 C.ar    1  ZINC000654672208   -0.1300
      3 C3         -0.8345    1.5688   49.1257 C.ar    1  ZINC000654672208    0.1000
      4 N4         -1.7242    2.1009   49.9409 N.ar    1  ZINC000654672208   -0.4700
      5 C5         -1.3688    2.8926   50.9337 C.ar    1  ZINC000654672208    0.1200
      6 C6         -2.4255    3.4749   51.8367 C.3     1  ZINC000654672208   -0.0900
      7 C7         -3.8096    3.0499   51.3422 C.3     1  ZINC000654672208    0.1500
      8 N8         -4.8273    3.4949   52.2974 N.am    1  ZINC000654672208   -0.7500
      9 C9         -6.1230    3.1835   52.0955 C.2     1  ZINC000654672208    0.7100
     10 O10        -6.4472    2.5334   51.1205 O.2     1  ZINC000654672208   -0.5800
     11 N11        -7.0593    3.5929   52.9742 N.am    1  ZINC000654672208   -0.6300
     12 C12        -6.6824    4.3792   54.1567 C.3     1  ZINC000654672208    0.1300
     13 C13        -7.2391    3.6877   55.4051 C.3     1  ZINC000654672208   -0.1400
     14 C14        -8.7464    3.4830   55.2414 C.3     1  ZINC000654672208   -0.1100
     15 C15        -9.0112    2.5774   54.0326 C.3     1  ZINC000654672208   -0.0600
     16 C16       -10.5216    2.3667   53.8847 C.3     1  ZINC000654672208   -0.1200
     17 C17       -10.7691    0.9811   53.2346 C.3     1  ZINC000654672208   -0.5800
     18 S18        -9.5425   -0.0555   54.1291 S.o2    1  ZINC000654672208    2.3800
     19 O19       -10.0278   -0.3520   55.4312 O.2     1  ZINC000654672208   -0.9300
     20 O20        -9.0942   -1.1032   53.2803 O.2     1  ZINC000654672208   -0.9300
     21 C21        -8.2609    1.2495   54.2329 C.3     1  ZINC000654672208   -0.5800
     22 C22        -8.4758    3.2663   52.7640 C.3     1  ZINC000654672208    0.1200
     23 C23        -0.0384    3.1942   51.1559 C.ar    1  ZINC000654672208   -0.1200
     24 C24         0.3591    4.0996   52.2932 C.3     1  ZINC000654672208   -0.1200
     25 C25         0.9262    2.6494   50.3224 C.ar    1  ZINC000654672208   -0.0800
     26 H26         1.8449    0.2482   48.7432 H       1  ZINC000654672208    0.0700
     27 H27         1.0713    1.0730   47.3684 H       1  ZINC000654672208    0.0700
     28 H28         2.3856    1.8745   48.2622 H       1  ZINC000654672208    0.0700
     29 H29        -1.1635    0.9251   48.3232 H       1  ZINC000654672208    0.1600
     30 H30        -2.2754    3.1112   52.8532 H       1  ZINC000654672208    0.0900
     31 H31        -2.3539    4.5624   51.8256 H       1  ZINC000654672208    0.0900
     32 H32        -4.0023    3.5017   50.3691 H       1  ZINC000654672208    0.0700
     33 H33        -3.8458    1.9642   51.2522 H       1  ZINC000654672208    0.0700
     34 H34        -4.5686    4.0136   53.0751 H       1  ZINC000654672208    0.3900
     35 H35        -5.5961    4.4384   54.2252 H       1  ZINC000654672208    0.1000
     36 H36        -7.1011    5.3824   54.0772 H       1  ZINC000654672208    0.0700
     37 H37        -6.7524    2.7207   55.5329 H       1  ZINC000654672208    0.0700
     38 H38        -7.0493    4.3092   56.2804 H       1  ZINC000654672208    0.0800
     39 H39        -9.1494    3.0162   56.1402 H       1  ZINC000654672208    0.0800
     40 H40        -9.2292    4.4476   55.0853 H       1  ZINC000654672208    0.0800
     41 H41       -10.9943    2.4005   54.8663 H       1  ZINC000654672208    0.1000
     42 H42       -10.9404    3.1487   53.2514 H       1  ZINC000654672208    0.1000
     43 H43       -11.7857    0.6357   53.4224 H       1  ZINC000654672208    0.1400
     44 H44       -10.5565    1.0059   52.1658 H       1  ZINC000654672208    0.1400
     45 H45        -7.5189    1.1130   53.4463 H       1  ZINC000654672208    0.1400
     46 H46        -7.7819    1.2307   55.2118 H       1  ZINC000654672208    0.1400
     47 H47        -9.0431    4.1778   52.5759 H       1  ZINC000654672208    0.0800
     48 H48        -8.5716    2.5914   51.9135 H       1  ZINC000654672208    0.0800
     49 H49         0.5360    3.5027   53.1880 H       1  ZINC000654672208    0.0800
     50 H50         1.2700    4.6367   52.0287 H       1  ZINC000654672208    0.0700
     51 H51        -0.4412    4.8141   52.4855 H       1  ZINC000654672208    0.0700
     52 H52         1.9733    2.8675   50.4721 H       1  ZINC000654672208    0.1300
@<TRIPOS>BOND
     1     1     2    1
     2     1    26    1
     3     1    27    1
     4     1    28    1
     5     2    25   ar
     6     2     3   ar
     7     3     4   ar
     8     3    29    1
     9     4     5   ar
    10     5     6    1
    11     5    23   ar
    12     6     7    1
    13     6    30    1
    14     6    31    1
    15     7     8    1
    16     7    32    1
    17     7    33    1
    18     8     9   am
    19     8    34    1
    20     9    10    2
    21     9    11   am
    22    11    22    1
    23    11    12    1
    24    12    13    1
    25    12    35    1
    26    12    36    1
    27    13    14    1
    28    13    37    1
    29    13    38    1
    30    14    15    1
    31    14    39    1
    32    14    40    1
    33    15    21    1
    34    15    16    1
    35    15    22    1
    36    16    17    1
    37    16    41    1
    38    16    42    1
    39    17    18    1
    40    17    43    1
    41    17    44    1
    42    18    19    2
    43    18    20    2
    44    18    21    1
    45    21    45    1
    46    21    46    1
    47    22    47    1
    48    22    48    1
    49    23    24    1
    50    23    25   ar
    51    24    49    1
    52    24    50    1
    53    24    51    1
    54    25    52    1
@<TRIPOS>SUBSTRUCTURE
     1 ZINC000654672208        1 TEMP              0 ****  ****    0 ROOT


##########                                Name:    ZINC000854500114
##########                DOCK_Rotatable_Bonds:                   7
##########                         Heavy_Atoms:                  24
##########                    Molecular_Weight:             399.288
##########                DOCK_Rotatable_Bonds:                   7
##########                       Formal_Charge:          -0.0399992
##########                     HBond_Acceptors:                   7
##########                        HBond_Donors:                   2
##########                         Heavy_Atoms:                  24
##########                          Grid_Score:          -27.770168
##########                     Grid_vdw_energy:          -27.788195
##########                      Grid_es_energy:            0.018026
##########           Internal_energy_repulsive:           82.917496

@<TRIPOS>MOLECULE
ZINC000854500114
 47 49 1 0 0
SMALL
USER_CHARGES


@<TRIPOS>ATOM
      1 O1         -9.6661   -0.3298   55.7117 O.2     1  ZINC000854500114   -0.5800
      2 C2        -10.4955   -0.7506   54.9297 C.2     1  ZINC000854500114    0.6600
      3 N3        -11.6787   -1.2092   55.3842 N.am    1  ZINC000854500114   -0.7100
      4 C4        -11.9623   -1.2058   56.8215 C.3     1  ZINC000854500114    0.1600
      5 C5        -13.3188   -1.8880   57.0940 C.3     1  ZINC000854500114   -0.1400
      6 C6        -12.9450   -3.3493   57.4460 C.3     1  ZINC000854500114   -0.1300
      7 C7        -11.6459   -3.1803   58.2723 C.3     1  ZINC000854500114   -0.1300
      8 C8        -10.8987   -2.0275   57.5706 C.3     1  ZINC000854500114   -0.1300
      9 O9        -10.2349   -0.7537   53.6088 O.3     1  ZINC000854500114   -0.3600
     10 C10        -8.9594   -0.2027   53.1874 C.3     1  ZINC000854500114    0.1000
     11 C11        -8.9571    1.3102   53.4156 C.3     1  ZINC000854500114    0.1500
     12 H12        -9.0077    1.5187   54.4842 H       1  ZINC000854500114    0.0900
     13 C13       -10.1648    1.9375   52.7122 C.3     1  ZINC000854500114   -0.1300
     14 C14       -10.0815    3.4614   52.8259 C.3     1  ZINC000854500114   -0.1200
     15 C15        -8.8091    3.9574   52.1353 C.3     1  ZINC000854500114   -0.1400
     16 C16        -7.5860    3.3530   52.8321 C.3     1  ZINC000854500114    0.0900
     17 N17        -7.7277    1.8905   52.8583 N.am    1  ZINC000854500114   -0.6100
     18 C18        -6.7508    1.0972   52.3756 C.2     1  ZINC000854500114    0.5900
     19 O19        -6.8801   -0.1119   52.4029 O.2     1  ZINC000854500114   -0.4900
     20 C20        -5.5278    1.6940   51.8154 C.2     1  ZINC000854500114   -0.0300
     21 C21        -4.5694    2.4206   52.5002 C.2     1  ZINC000854500114   -0.1200
     22 C22        -3.6130    2.7669   51.5419 C.2     1  ZINC000854500114    0.0200
     23 Br23       -2.0402    3.7705   51.8503 Br      1  ZINC000854500114    0.0400
     24 N24        -3.9992    2.2726   50.3929 N.2     1  ZINC000854500114   -0.2400
     25 N25        -5.1082    1.6367   50.5168 N.pl3   1  ZINC000854500114   -0.3700
     26 H26       -12.3423   -1.5414   54.7597 H       1  ZINC000854500114    0.4000
     27 H27       -11.9761   -0.1824   57.1966 H       1  ZINC000854500114    0.0900
     28 H28       -13.8241   -1.4106   57.9336 H       1  ZINC000854500114    0.0800
     29 H29       -13.9464   -1.8587   56.2032 H       1  ZINC000854500114    0.0700
     30 H30       -13.7271   -3.8141   58.0465 H       1  ZINC000854500114    0.0700
     31 H31       -12.7555   -3.9280   56.5420 H       1  ZINC000854500114    0.0700
     32 H32       -11.8811   -2.9116   59.3021 H       1  ZINC000854500114    0.0700
     33 H33       -11.0526   -4.0942   58.2413 H       1  ZINC000854500114    0.0700
     34 H34       -10.1714   -2.4287   56.8648 H       1  ZINC000854500114    0.0700
     35 H35       -10.3969   -1.4031   58.3099 H       1  ZINC000854500114    0.0800
     36 H36        -8.1571   -0.6588   53.7673 H       1  ZINC000854500114    0.1000
     37 H37        -8.8058   -0.4106   52.1285 H       1  ZINC000854500114    0.0700
     38 H38       -10.1629    1.6506   51.6607 H       1  ZINC000854500114    0.0800
     39 H39       -11.0829    1.5871   53.1838 H       1  ZINC000854500114    0.0900
     40 H40       -10.9525    3.9094   52.3476 H       1  ZINC000854500114    0.0800
     41 H41       -10.0585    3.7464   53.8777 H       1  ZINC000854500114    0.0700
     42 H42        -8.8199    3.6514   51.0892 H       1  ZINC000854500114    0.0700
     43 H43        -8.7622    5.0447   52.1963 H       1  ZINC000854500114    0.0800
     44 H44        -6.6829    3.6231   52.2846 H       1  ZINC000854500114    0.0800
     45 H45        -7.5235    3.7303   53.8528 H       1  ZINC000854500114    0.0800
     46 H46        -4.5622    2.6676   53.5516 H       1  ZINC000854500114    0.1700
     47 H47        -5.5793    1.1892   49.7965 H       1  ZINC000854500114    0.4500
@<TRIPOS>BOND
     1     1     2    2
     2     2     3   am
     3     2     9    1
     4     3     4    1
     5     3    26    1
     6     4     8    1
     7     4     5    1
     8     4    27    1
     9     5     6    1
    10     5    28    1
    11     5    29    1
    12     6     7    1
    13     6    30    1
    14     6    31    1
    15     7     8    1
    16     7    32    1
    17     7    33    1
    18     8    34    1
    19     8    35    1
    20     9    10    1
    21    10    11    1
    22    10    36    1
    23    10    37    1
    24    11    12    1
    25    11    17    1
    26    11    13    1
    27    13    14    1
    28    13    38    1
    29    13    39    1
    30    14    15    1
    31    14    40    1
    32    14    41    1
    33    15    16    1
    34    15    42    1
    35    15    43    1
    36    16    17    1
    37    16    44    1
    38    16    45    1
    39    17    18   am
    40    18    19    2
    41    18    20    1
    42    20    25    1
    43    20    21    2
    44    21    22    1
    45    21    46    1
    46    22    23    1
    47    22    24    2
    48    24    25    1
    49    25    47    1
@<TRIPOS>SUBSTRUCTURE
     1 ZINC000854500114        1 TEMP              0 ****  ****    0 ROOT


##########                                Name:    ZINC000080099940
##########                DOCK_Rotatable_Bonds:                   4
##########                         Heavy_Atoms:                  26
##########                    Molecular_Weight:             343.388
##########                DOCK_Rotatable_Bonds:                   4
##########                       Formal_Charge:        -3.42727e-07
##########                     HBond_Acceptors:                   6
##########                        HBond_Donors:                   1
##########                         Heavy_Atoms:                  26
##########                          Grid_Score:          -27.729301
##########                     Grid_vdw_energy:          -28.179695
##########                      Grid_es_energy:            0.450394
##########           Internal_energy_repulsive:            3.719837

@<TRIPOS>MOLECULE
ZINC000080099940
 43 46 1 0 0
SMALL
USER_CHARGES


@<TRIPOS>ATOM
      1 C1          3.6637    0.7476   46.7361 C.3     1  ZINC000080099940   -0.1100
      2 C2          2.7753    1.3745   47.7797 C.2     1  ZINC000080099940   -0.0700
      3 C3          1.4510    1.0677   47.8233 C.2     1  ZINC000080099940   -0.0900
      4 C4          0.6354    1.6641   48.8068 C.2     1  ZINC000080099940    0.2300
      5 N5         -0.6568    1.5519   49.0766 N.2     1  ZINC000080099940   -0.4800
      6 C6         -0.9567    2.3352   50.1248 C.2     1  ZINC000080099940    0.1000
      7 C7         -2.2990    2.4908   50.7375 C.ar    1  ZINC000080099940   -0.0200
      8 C8         -2.4165    2.7990   52.0918 C.ar    1  ZINC000080099940   -0.0800
      9 C9         -3.6648    2.9435   52.6591 C.ar    1  ZINC000080099940   -0.1200
     10 C10        -4.8055    2.7816   51.8816 C.ar    1  ZINC000080099940    0.1500
     11 N11        -6.0699    2.9281   52.4588 N.am    1  ZINC000080099940   -0.6500
     12 C12        -6.8595    1.8501   52.6345 C.2     1  ZINC000080099940    0.5700
     13 O13        -6.4722    0.7509   52.2910 O.2     1  ZINC000080099940   -0.5000
     14 C14        -8.2020    2.0056   53.2474 C.ar    1  ZINC000080099940    0.1300
     15 C15        -8.6612    3.2634   53.6396 C.ar    1  ZINC000080099940   -0.1700
     16 C16        -9.9244    3.3542   54.2074 C.ar    1  ZINC000080099940    0.1600
     17 N17       -10.6439    2.2554   54.3562 N.ar    1  ZINC000080099940   -0.5000
     18 C18       -10.1794    1.0813   53.9743 C.ar    1  ZINC000080099940    0.3200
     19 C19       -11.0381   -0.1424   54.1651 C.3     1  ZINC000080099940   -0.0900
     20 N20        -8.9905    0.9482   53.4271 N.ar    1  ZINC000080099940   -0.5000
     21 C21        -4.6906    2.4746   50.5309 C.ar    1  ZINC000080099940   -0.1400
     22 C22        -3.4442    2.3344   49.9584 C.ar    1  ZINC000080099940   -0.0700
     23 C23         0.1830    2.9623   50.5299 C.2     1  ZINC000080099940   -0.0900
     24 N24         1.1877    2.5428   49.7032 N.pl3   1  ZINC000080099940   -0.3600
     25 C25         2.5187    2.8415   49.6477 C.2     1  ZINC000080099940    0.0600
     26 C26         3.3125    2.2739   48.7155 C.2     1  ZINC000080099940   -0.1400
     27 H27         4.6841    1.1092   46.8629 H       1  ZINC000080099940    0.0700
     28 H28         3.6459   -0.3365   46.8475 H       1  ZINC000080099940    0.0800
     29 H29         3.3035    1.0169   45.7432 H       1  ZINC000080099940    0.0800
     30 H30         1.0282    0.3743   47.1112 H       1  ZINC000080099940    0.1500
     31 H31        -1.5304    2.9243   52.6964 H       1  ZINC000080099940    0.1300
     32 H32        -3.7563    3.1825   53.7083 H       1  ZINC000080099940    0.1400
     33 H33        -6.3791    3.8056   52.7331 H       1  ZINC000080099940    0.4200
     34 H34        -8.0495    4.1433   53.5053 H       1  ZINC000080099940    0.1600
     35 H35       -10.3144    4.3104   54.5238 H       1  ZINC000080099940    0.1800
     36 H36       -11.6539   -0.2959   53.2789 H       1  ZINC000080099940    0.0900
     37 H37       -10.4007   -1.0129   54.3200 H       1  ZINC000080099940    0.0900
     38 H38       -11.6807   -0.0032   55.0345 H       1  ZINC000080099940    0.0900
     39 H39        -5.5783    2.3493   49.9286 H       1  ZINC000080099940    0.1300
     40 H40        -3.3554    2.0962   48.9087 H       1  ZINC000080099940    0.1400
     41 H41         0.2752    3.6595   51.3495 H       1  ZINC000080099940    0.1900
     42 H42         2.9412    3.5351   50.3595 H       1  ZINC000080099940    0.1700
     43 H43         4.3639    2.5190   48.6834 H       1  ZINC000080099940    0.1500
@<TRIPOS>BOND
     1     1     2    1
     2     1    27    1
     3     1    28    1
     4     1    29    1
     5     2    26    1
     6     2     3    2
     7     3     4    1
     8     3    30    1
     9     4    24    1
    10     4     5    2
    11     5     6    1
    12     6     7    1
    13     6    23    2
    14     7    22   ar
    15     7     8   ar
    16     8     9   ar
    17     8    31    1
    18     9    10   ar
    19     9    32    1
    20    10    11    1
    21    10    21   ar
    22    11    12   am
    23    11    33    1
    24    12    13    2
    25    12    14    1
    26    14    20   ar
    27    14    15   ar
    28    15    16   ar
    29    15    34    1
    30    16    17   ar
    31    16    35    1
    32    17    18   ar
    33    18    19    1
    34    18    20   ar
    35    19    36    1
    36    19    37    1
    37    19    38    1
    38    21    22   ar
    39    21    39    1
    40    22    40    1
    41    23    24    1
    42    23    41    1
    43    24    25    1
    44    25    26    2
    45    25    42    1
    46    26    43    1
@<TRIPOS>SUBSTRUCTURE
     1 ZINC000080099940        1 TEMP              0 ****  ****    0 ROOT


##########                                Name:    ZINC000337709254
##########                DOCK_Rotatable_Bonds:                   7
##########                         Heavy_Atoms:                  22
##########                    Molecular_Weight:              329.42
##########                DOCK_Rotatable_Bonds:                   7
##########                       Formal_Charge:           0.0300004
##########                     HBond_Acceptors:                   8
##########                        HBond_Donors:                   2
##########                         Heavy_Atoms:                  22
##########                          Grid_Score:          -27.702402
##########                     Grid_vdw_energy:          -26.040878
##########                      Grid_es_energy:           -1.661523
##########           Internal_energy_repulsive:           11.098962

@<TRIPOS>MOLECULE
ZINC000337709254
 45 46 1 0 0
SMALL
USER_CHARGES


@<TRIPOS>ATOM
      1 C1        -11.0693    0.4102   52.5015 C.3     1  ZINC000337709254   -0.6700
      2 S2        -11.0482   -0.0843   54.2467 S.o2    1  ZINC000337709254    2.6100
      3 O3        -12.3672   -0.3444   54.7072 O.2     1  ZINC000337709254   -0.9500
      4 O4         -9.9921   -1.0029   54.4919 O.2     1  ZINC000337709254   -0.9500
      5 N5        -10.5947    1.2856   55.0589 N.am    1  ZINC000337709254   -1.1200
      6 C6         -9.3022    1.9130   54.7726 C.3     1  ZINC000337709254    0.1200
      7 C7         -8.7307    2.5135   56.0585 C.3     1  ZINC000337709254   -0.1100
      8 H8         -9.4531    3.1891   56.5168 H       1  ZINC000337709254    0.1100
      9 C9         -8.3323    1.3923   57.0501 C.3     1  ZINC000337709254   -0.1200
     10 C10        -7.2746    2.0863   57.9438 C.3     1  ZINC000337709254   -0.1200
     11 C11        -6.4808    2.9785   56.9671 C.3     1  ZINC000337709254   -0.1400
     12 C12        -7.4085    3.2532   55.7679 C.3     1  ZINC000337709254    0.1500
     13 H13        -7.5887    4.3240   55.6728 H       1  ZINC000337709254    0.1000
     14 N14        -6.8050    2.7351   54.5377 N.am    1  ZINC000337709254   -0.7200
     15 C15        -6.5143    3.5745   53.5242 C.2     1  ZINC000337709254    0.5300
     16 O16        -6.7536    4.7589   53.6301 O.2     1  ZINC000337709254   -0.5100
     17 C17        -5.8918    3.0418   52.2594 C.3     1  ZINC000337709254    0.0200
     18 C18        -6.3920    3.8055   51.1048 C.1     1  ZINC000337709254    0.2000
     19 N19        -6.7782    4.3948   50.2136 N.1     1  ZINC000337709254   -0.3900
     20 C20        -4.3681    3.1750   52.3428 C.3     1  ZINC000337709254   -0.1500
     21 C21        -3.7405    2.5602   51.0891 C.3     1  ZINC000337709254    0.0600
     22 O22        -4.1438    1.1938   50.9771 O.3     1  ZINC000337709254   -0.3700
     23 C23        -5.5552    1.0107   50.8484 C.3     1  ZINC000337709254    0.0600
     24 C24        -6.2557    1.5633   52.0925 C.3     1  ZINC000337709254   -0.1300
     25 H25       -11.7842    1.2212   52.3623 H       1  ZINC000337709254    0.1300
     26 H26       -10.0753    0.7475   52.2074 H       1  ZINC000337709254    0.1300
     27 H27       -11.3611   -0.4409   51.8861 H       1  ZINC000337709254    0.1300
     28 H28       -11.1848    1.6727   55.7244 H       1  ZINC000337709254    0.4200
     29 H29        -8.6127    1.1636   54.3839 H       1  ZINC000337709254    0.0600
     30 H30        -9.4371    2.7013   54.0320 H       1  ZINC000337709254    0.0900
     31 H31        -9.1914    1.0770   57.6422 H       1  ZINC000337709254    0.0800
     32 H32        -7.8951    0.5458   56.5206 H       1  ZINC000337709254    0.0700
     33 H33        -7.7599    2.6942   58.7073 H       1  ZINC000337709254    0.0700
     34 H34        -6.6190    1.3467   58.4035 H       1  ZINC000337709254    0.0700
     35 H35        -6.2131    3.9172   57.4524 H       1  ZINC000337709254    0.0800
     36 H36        -5.5817    2.4600   56.6345 H       1  ZINC000337709254    0.0700
     37 H37        -6.6148    1.7877   54.4525 H       1  ZINC000337709254    0.4000
     38 H38        -4.0975    4.2290   52.4062 H       1  ZINC000337709254    0.0900
     39 H39        -4.0044    2.6508   53.2266 H       1  ZINC000337709254    0.1100
     40 H40        -4.0729    3.1105   50.2089 H       1  ZINC000337709254    0.0500
     41 H41        -2.6543    2.6137   51.1626 H       1  ZINC000337709254    0.1100
     42 H42        -5.9114    1.5409   49.9650 H       1  ZINC000337709254    0.0500
     43 H43        -5.7763   -0.0519   50.7486 H       1  ZINC000337709254    0.1100
     44 H44        -5.9302    1.0066   52.9712 H       1  ZINC000337709254    0.1100
     45 H45        -7.3350    1.4647   51.9768 H       1  ZINC000337709254    0.0900
@<TRIPOS>BOND
     1     1     2    1
     2     1    25    1
     3     1    26    1
     4     1    27    1
     5     2     3    2
     6     2     4    2
     7     2     5   am
     8     5     6    1
     9     5    28    1
    10     6     7    1
    11     6    29    1
    12     6    30    1
    13     7     8    1
    14     7    12    1
    15     7     9    1
    16     9    10    1
    17     9    31    1
    18     9    32    1
    19    10    11    1
    20    10    33    1
    21    10    34    1
    22    11    12    1
    23    11    35    1
    24    11    36    1
    25    12    13    1
    26    12    14    1
    27    14    15   am
    28    14    37    1
    29    15    16    2
    30    15    17    1
    31    17    24    1
    32    17    18    1
    33    17    20    1
    34    18    19    3
    35    20    21    1
    36    20    38    1
    37    20    39    1
    38    21    22    1
    39    21    40    1
    40    21    41    1
    41    22    23    1
    42    23    24    1
    43    23    42    1
    44    23    43    1
    45    24    44    1
    46    24    45    1
@<TRIPOS>SUBSTRUCTURE
     1 ZINC000337709254        1 TEMP              0 ****  ****    0 ROOT


##########                                Name:    ZINC001436455587
##########                DOCK_Rotatable_Bonds:                   9
##########                         Heavy_Atoms:                  21
##########                    Molecular_Weight:             378.693
##########                DOCK_Rotatable_Bonds:                   9
##########                       Formal_Charge:          -0.0200001
##########                     HBond_Acceptors:                   5
##########                        HBond_Donors:                   1
##########                         Heavy_Atoms:                  21
##########                          Grid_Score:          -27.684990
##########                     Grid_vdw_energy:          -26.849012
##########                      Grid_es_energy:           -0.835978
##########           Internal_energy_repulsive:           19.776546

@<TRIPOS>MOLECULE
ZINC001436455587
 42 42 1 0 0
SMALL
USER_CHARGES


@<TRIPOS>ATOM
      1 C1        -13.3037    5.9128   48.5674 C.3     1  ZINC001436455587   -0.1500
      2 C2        -11.9174    5.3538   48.2409 C.3     1  ZINC001436455587   -0.1300
      3 C3        -11.1057    5.2178   49.5307 C.3     1  ZINC001436455587   -0.1400
      4 C4         -9.7189    4.6600   49.2041 C.3     1  ZINC001436455587    0.0800
      5 H5         -9.8224    3.6842   48.7293 H       1  ZINC001436455587    0.0700
      6 C6         -8.9101    4.5160   50.4948 C.3     1  ZINC001436455587    0.1200
      7 N7         -7.6188    3.8924   50.1950 N.am    1  ZINC001436455587   -0.7200
      8 C8         -6.9657    3.2022   51.1508 C.2     1  ZINC001436455587    0.5200
      9 O9         -7.4476    3.0961   52.2586 O.2     1  ZINC001436455587   -0.5100
     10 C10        -5.6365    2.5622   50.8429 C.3     1  ZINC001436455587    0.0600
     11 H11        -5.5895    2.3145   49.7824 H       1  ZINC001436455587    0.1000
     12 C12        -5.4807    1.2859   51.6720 C.3     1  ZINC001436455587   -0.1800
     13 O13        -4.5833    3.4721   51.1667 O.3     1  ZINC001436455587   -0.2700
     14 C14        -3.3117    3.0532   50.9314 C.ar    1  ZINC001436455587    0.1600
     15 C15        -3.0057    2.3915   49.7519 C.ar    1  ZINC001436455587   -0.2000
     16 C16        -1.7124    1.9668   49.5142 C.ar    1  ZINC001436455587   -0.0500
     17 C17        -0.7228    2.2008   50.4521 C.ar    1  ZINC001436455587   -0.0700
     18 Cl18        0.9010    1.6656   50.1510 Cl      1  ZINC001436455587   -0.0600
     19 C19        -1.0253    2.8614   51.6299 C.ar    1  ZINC001436455587   -0.0400
     20 C20        -2.3164    3.2924   51.8692 C.ar    1  ZINC001436455587   -0.1200
     21 Br21       -2.7298    4.1950   53.4786 Br      1  ZINC001436455587   -0.0100
     22 O22        -9.0434    5.5527   48.3158 O.3     1  ZINC001436455587   -0.3800
     23 C23        -8.8553    6.8669   48.8445 C.3     1  ZINC001436455587    0.0200
     24 H24       -13.8170    5.2356   49.2501 H       1  ZINC001436455587    0.0500
     25 H25       -13.1997    6.8914   49.0362 H       1  ZINC001436455587    0.0600
     26 H26       -13.8820    6.0097   47.6486 H       1  ZINC001436455587    0.0600
     27 H27       -12.0214    4.3752   47.7723 H       1  ZINC001436455587    0.0600
     28 H28       -11.4041    6.0310   47.5583 H       1  ZINC001436455587    0.0700
     29 H29       -11.0024    6.1962   49.9999 H       1  ZINC001436455587    0.0800
     30 H30       -11.6185    4.5400   50.2130 H       1  ZINC001436455587    0.0800
     31 H31        -8.7452    5.5008   50.9321 H       1  ZINC001436455587    0.0800
     32 H32        -9.4596    3.8926   51.2003 H       1  ZINC001436455587    0.0800
     33 H33        -7.2339    3.9762   49.3086 H       1  ZINC001436455587    0.4000
     34 H34        -4.5193    0.8230   51.4494 H       1  ZINC001436455587    0.0800
     35 H35        -5.5277    1.5335   52.7325 H       1  ZINC001436455587    0.0800
     36 H36        -6.2840    0.5917   51.4251 H       1  ZINC001436455587    0.0800
     37 H37        -3.7779    2.2078   49.0196 H       1  ZINC001436455587    0.1500
     38 H38        -1.4740    1.4514   48.5956 H       1  ZINC001436455587    0.1400
     39 H39        -0.2514    3.0434   52.3608 H       1  ZINC001436455587    0.1500
     40 H40        -8.1887    6.8202   49.7056 H       1  ZINC001436455587    0.0500
     41 H41        -8.4161    7.5069   48.0793 H       1  ZINC001436455587    0.0900
     42 H42        -9.8178    7.2760   49.1518 H       1  ZINC001436455587    0.0400
@<TRIPOS>BOND
     1     1     2    1
     2     1    24    1
     3     1    25    1
     4     1    26    1
     5     2     3    1
     6     2    27    1
     7     2    28    1
     8     3     4    1
     9     3    29    1
    10     3    30    1
    11     4     5    1
    12     4     6    1
    13     4    22    1
    14     6     7    1
    15     6    31    1
    16     6    32    1
    17     7     8   am
    18     7    33    1
    19     8     9    2
    20     8    10    1
    21    10    11    1
    22    10    12    1
    23    10    13    1
    24    12    34    1
    25    12    35    1
    26    12    36    1
    27    13    14    1
    28    14    20   ar
    29    14    15   ar
    30    15    16   ar
    31    15    37    1
    32    16    17   ar
    33    16    38    1
    34    17    18    1
    35    17    19   ar
    36    19    20   ar
    37    19    39    1
    38    20    21    1
    39    22    23    1
    40    23    40    1
    41    23    41    1
    42    23    42    1
@<TRIPOS>SUBSTRUCTURE
     1 ZINC001436455587        1 TEMP              0 ****  ****    0 ROOT


##########                                Name:    ZINC001074839487
##########                DOCK_Rotatable_Bonds:                   7
##########                         Heavy_Atoms:                  25
##########                    Molecular_Weight:             344.454
##########                DOCK_Rotatable_Bonds:                   7
##########                       Formal_Charge:          -0.0500005
##########                     HBond_Acceptors:                   5
##########                        HBond_Donors:                   1
##########                         Heavy_Atoms:                  25
##########                          Grid_Score:          -27.681223
##########                     Grid_vdw_energy:          -28.486343
##########                      Grid_es_energy:            0.805121
##########           Internal_energy_repulsive:           90.412369

@<TRIPOS>MOLECULE
ZINC001074839487
 53 55 1 0 0
SMALL
USER_CHARGES


@<TRIPOS>ATOM
      1 C1         -8.9221    0.4081   64.8150 C.3     1  ZINC001074839487   -0.1500
      2 C2         -9.3278    0.2155   63.3524 C.3     1  ZINC001074839487   -0.1300
      3 C3         -8.0732    0.1581   62.4785 C.3     1  ZINC001074839487   -0.1100
      4 C4         -8.4741   -0.1198   61.0283 C.3     1  ZINC001074839487   -0.1400
      5 C5         -8.6345    1.1855   60.2926 C.2     1  ZINC001074839487    0.5100
      6 O6         -8.9941    2.1780   60.8897 O.2     1  ZINC001074839487   -0.5400
      7 N7         -8.3782    1.2501   58.9710 N.am    1  ZINC001074839487   -0.7300
      8 C8         -8.5323    2.5195   58.2561 C.3     1  ZINC001074839487    0.1400
      9 H9         -8.4000    3.3471   58.9530 H       1  ZINC001074839487    0.0900
     10 C10        -7.4800    2.6121   57.1488 C.3     1  ZINC001074839487   -0.1500
     11 C11        -7.6472    1.4286   56.1906 C.3     1  ZINC001074839487    0.0700
     12 N12        -9.0337    1.4056   55.7050 N.am    1  ZINC001074839487   -0.6000
     13 C13        -9.2982    1.3839   54.3836 C.2     1  ZINC001074839487    0.5600
     14 O14       -10.4496    1.3648   53.9945 O.2     1  ZINC001074839487   -0.5200
     15 C15        -8.1879    1.3833   53.4074 C.ar    1  ZINC001074839487   -0.1300
     16 C16        -7.7039    0.1776   52.8976 C.ar    1  ZINC001074839487   -0.1000
     17 C17        -6.6670    0.1827   51.9864 C.ar    1  ZINC001074839487   -0.1000
     18 C18        -6.1086    1.3783   51.5791 C.ar    1  ZINC001074839487   -0.1100
     19 C19        -4.9894    1.7080   50.6184 C.3     1  ZINC001074839487    0.0900
     20 O20        -4.5902    3.0566   50.9235 O.3     1  ZINC001074839487   -0.3600
     21 C21        -5.7742    3.6858   51.4468 C.3     1  ZINC001074839487    0.0900
     22 C22        -6.5854    2.5807   52.0825 C.ar    1  ZINC001074839487   -0.1400
     23 C23        -7.6228    2.5894   52.9873 C.ar    1  ZINC001074839487   -0.0400
     24 C24       -10.1264    1.4072   56.6871 C.3     1  ZINC001074839487    0.1500
     25 H25       -10.1101    0.4759   57.2534 H       1  ZINC001074839487    0.0700
     26 C26       -11.4669    1.5471   55.9630 C.3     1  ZINC001074839487   -0.1400
     27 C27        -9.9314    2.5909   57.6398 C.3     1  ZINC001074839487   -0.1400
     28 H28        -8.2968   -0.4267   65.1316 H       1  ZINC001074839487    0.0500
     29 H29        -9.8159    0.4491   65.4376 H       1  ZINC001074839487    0.0500
     30 H30        -8.3647    1.3391   64.9179 H       1  ZINC001074839487    0.0500
     31 H31        -9.8853   -0.7155   63.2495 H       1  ZINC001074839487    0.0600
     32 H32        -9.9531    1.0503   63.0359 H       1  ZINC001074839487    0.0600
     33 H33        -7.5478    1.1115   62.5339 H       1  ZINC001074839487    0.0700
     34 H34        -7.4193   -0.6384   62.8336 H       1  ZINC001074839487    0.0700
     35 H35        -7.7002   -0.7164   60.5455 H       1  ZINC001074839487    0.0900
     36 H36        -9.4176   -0.6652   61.0104 H       1  ZINC001074839487    0.0900
     37 H37        -8.0917    0.4560   58.4932 H       1  ZINC001074839487    0.4000
     38 H38        -7.6099    3.5452   56.6006 H       1  ZINC001074839487    0.0800
     39 H39        -6.4839    2.5847   57.5904 H       1  ZINC001074839487    0.0800
     40 H40        -6.9664    1.5424   55.3470 H       1  ZINC001074839487    0.1200
     41 H41        -7.4287    0.4991   56.7164 H       1  ZINC001074839487    0.0700
     42 H42        -8.1403   -0.7579   53.2152 H       1  ZINC001074839487    0.1500
     43 H43        -6.2921   -0.7498   51.5911 H       1  ZINC001074839487    0.1400
     44 H44        -4.1528    1.0256   50.7680 H       1  ZINC001074839487    0.1000
     45 H45        -5.3464    1.6455   49.5904 H       1  ZINC001074839487    0.0800
     46 H46        -5.5041    4.4312   52.1948 H       1  ZINC001074839487    0.1000
     47 H47        -6.3404    4.1506   50.6397 H       1  ZINC001074839487    0.0800
     48 H48        -7.9960    3.5261   53.3745 H       1  ZINC001074839487    0.1400
     49 H49       -11.6529    0.6535   55.3671 H       1  ZINC001074839487    0.0800
     50 H50       -12.2648    1.6679   56.6957 H       1  ZINC001074839487    0.0500
     51 H51       -11.4378    2.4195   55.3102 H       1  ZINC001074839487    0.0700
     52 H52       -10.6799    2.5484   58.4309 H       1  ZINC001074839487    0.0900
     53 H53       -10.0381    3.5242   57.0870 H       1  ZINC001074839487    0.0900
@<TRIPOS>BOND
     1     1     2    1
     2     1    28    1
     3     1    29    1
     4     1    30    1
     5     2     3    1
     6     2    31    1
     7     2    32    1
     8     3     4    1
     9     3    33    1
    10     3    34    1
    11     4     5    1
    12     4    35    1
    13     4    36    1
    14     5     6    2
    15     5     7   am
    16     7     8    1
    17     7    37    1
    18     8     9    1
    19     8    27    1
    20     8    10    1
    21    10    11    1
    22    10    38    1
    23    10    39    1
    24    11    12    1
    25    11    40    1
    26    11    41    1
    27    12    13   am
    28    12    24    1
    29    13    14    2
    30    13    15    1
    31    15    23   ar
    32    15    16   ar
    33    16    17   ar
    34    16    42    1
    35    17    18   ar
    36    17    43    1
    37    18    22   ar
    38    18    19    1
    39    19    20    1
    40    19    44    1
    41    19    45    1
    42    20    21    1
    43    21    22    1
    44    21    46    1
    45    21    47    1
    46    22    23   ar
    47    23    48    1
    48    24    25    1
    49    24    26    1
    50    24    27    1
    51    26    49    1
    52    26    50    1
    53    26    51    1
    54    27    52    1
    55    27    53    1
@<TRIPOS>SUBSTRUCTURE
     1 ZINC001074839487        1 TEMP              0 ****  ****    0 ROOT


##########                                Name:    ZINC001087843226
##########                DOCK_Rotatable_Bonds:                   6
##########                         Heavy_Atoms:                  27
##########                    Molecular_Weight:             368.479
##########                DOCK_Rotatable_Bonds:                   6
##########                       Formal_Charge:        -4.47035e-07
##########                     HBond_Acceptors:                   6
##########                        HBond_Donors:                   1
##########                         Heavy_Atoms:                  27
##########                          Grid_Score:          -27.676971
##########                     Grid_vdw_energy:          -27.021400
##########                      Grid_es_energy:           -0.655571
##########           Internal_energy_repulsive:           40.129753

@<TRIPOS>MOLECULE
ZINC001087843226
 55 58 1 0 0
SMALL
USER_CHARGES


@<TRIPOS>ATOM
      1 C1         -7.9230   -0.2131   59.4503 C.3     1  ZINC001087843226   -0.1500
      2 C2         -7.4353    0.9453   58.5779 C.3     1  ZINC001087843226   -0.1500
      3 C3         -8.6387    1.7344   58.0584 C.3     1  ZINC001087843226    0.0700
      4 H4         -9.1960    2.1543   58.8958 H       1  ZINC001087843226    0.1000
      5 C5         -9.5546    0.8097   57.2292 C.3     1  ZINC001087843226    0.1300
      6 H6         -8.9949   -0.0429   56.8447 H       1  ZINC001087843226    0.1000
      7 N7        -10.6966    0.3593   58.0288 N.am    1  ZINC001087843226   -0.7200
      8 C8        -11.3710   -0.7523   57.6740 C.2     1  ZINC001087843226    0.5600
      9 O9        -11.0328   -1.3804   56.6899 O.2     1  ZINC001087843226   -0.5300
     10 C10       -12.5224   -1.2079   58.4820 C.ar    1  ZINC001087843226   -0.1400
     11 C11       -12.7900   -0.6120   59.7140 C.ar    1  ZINC001087843226   -0.0800
     12 C12       -13.8659   -1.0415   60.4634 C.ar    1  ZINC001087843226   -0.1300
     13 C13       -14.6756   -2.0587   59.9939 C.ar    1  ZINC001087843226   -0.0400
     14 C14       -15.8487   -2.5213   60.8190 C.3     1  ZINC001087843226   -0.1200
     15 C15       -14.4171   -2.6565   58.7698 C.ar    1  ZINC001087843226   -0.1100
     16 C16       -13.3475   -2.2327   58.0090 C.ar    1  ZINC001087843226   -0.0300
     17 C17       -13.2783   -3.0358   56.7280 C.3     1  ZINC001087843226   -0.0800
     18 C18       -14.1517   -4.2822   56.9854 C.3     1  ZINC001087843226   -0.1200
     19 C19       -15.1469   -3.7715   58.0512 C.3     1  ZINC001087843226   -0.0800
     20 C20       -10.0206    1.7283   56.0691 C.3     1  ZINC001087843226   -0.1400
     21 C21        -8.7538    2.5842   55.8196 C.3     1  ZINC001087843226    0.0400
     22 N22        -8.1822    2.8163   57.1668 N.3     1  ZINC001087843226   -0.5100
     23 C23        -6.7151    2.8711   57.1140 C.3     1  ZINC001087843226    0.1100
     24 C24        -6.2863    4.0375   56.2616 C.2     1  ZINC001087843226    0.0800
     25 N25        -6.9569    4.5218   55.2593 N.2     1  ZINC001087843226   -0.2700
     26 O26        -6.2094    5.6067   54.7329 O.3     1  ZINC001087843226    0.0300
     27 N27        -5.0373    5.7075   55.5262 N.2     1  ZINC001087843226   -0.2800
     28 C28        -5.0988    4.7766   56.4308 C.2     1  ZINC001087843226    0.0900
     29 C29        -4.0570    4.5207   57.4892 C.3     1  ZINC001087843226   -0.0900
     30 H30        -7.0705   -0.8156   59.7640 H       1  ZINC001087843226    0.0600
     31 H31        -8.4311    0.1831   60.3295 H       1  ZINC001087843226    0.0600
     32 H32        -8.6148   -0.8321   58.8790 H       1  ZINC001087843226    0.0600
     33 H33        -6.7978    1.6024   59.1694 H       1  ZINC001087843226    0.0800
     34 H34        -6.8679    0.5512   57.7347 H       1  ZINC001087843226    0.0700
     35 H35       -10.9672    0.8612   58.8135 H       1  ZINC001087843226    0.4000
     36 H36       -12.1570    0.1825   60.0807 H       1  ZINC001087843226    0.1300
     37 H37       -14.0756   -0.5825   61.4182 H       1  ZINC001087843226    0.1300
     38 H38       -16.7317   -1.9404   60.5527 H       1  ZINC001087843226    0.0800
     39 H39       -16.0361   -3.5772   60.6240 H       1  ZINC001087843226    0.0700
     40 H40       -15.6269   -2.3808   61.8768 H       1  ZINC001087843226    0.0700
     41 H41       -13.6806   -2.4571   55.8965 H       1  ZINC001087843226    0.0800
     42 H42       -12.2494   -3.3308   56.5217 H       1  ZINC001087843226    0.0900
     43 H43       -14.6775   -4.5809   56.0786 H       1  ZINC001087843226    0.0800
     44 H44       -13.5498   -5.1035   57.3743 H       1  ZINC001087843226    0.0700
     45 H45       -15.3939   -4.5697   58.7511 H       1  ZINC001087843226    0.0800
     46 H46       -16.0506   -3.3927   57.5740 H       1  ZINC001087843226    0.0800
     47 H47       -10.2764    1.1427   55.1860 H       1  ZINC001087843226    0.0800
     48 H48       -10.8590    2.3525   56.3780 H       1  ZINC001087843226    0.0800
     49 H49        -8.0457    2.0406   55.1940 H       1  ZINC001087843226    0.0600
     50 H50        -9.0223    3.5326   55.3542 H       1  ZINC001087843226    0.0800
     51 H51        -6.3195    2.9931   58.1223 H       1  ZINC001087843226    0.1200
     52 H52        -6.3324    1.9459   56.6830 H       1  ZINC001087843226    0.0700
     53 H53        -4.3405    5.0321   58.4092 H       1  ZINC001087843226    0.1000
     54 H54        -3.9851    3.4493   57.6766 H       1  ZINC001087843226    0.0900
     55 H55        -3.0923    4.8955   57.1476 H       1  ZINC001087843226    0.0900
@<TRIPOS>BOND
     1     1     2    1
     2     1    30    1
     3     1    31    1
     4     1    32    1
     5     2     3    1
     6     2    33    1
     7     2    34    1
     8     3     4    1
     9     3    22    1
    10     3     5    1
    11     5     6    1
    12     5     7    1
    13     5    20    1
    14     7     8   am
    15     7    35    1
    16     8     9    2
    17     8    10    1
    18    10    16   ar
    19    10    11   ar
    20    11    12   ar
    21    11    36    1
    22    12    13   ar
    23    12    37    1
    24    13    14    1
    25    13    15   ar
    26    14    38    1
    27    14    39    1
    28    14    40    1
    29    15    19    1
    30    15    16   ar
    31    16    17    1
    32    17    18    1
    33    17    41    1
    34    17    42    1
    35    18    19    1
    36    18    43    1
    37    18    44    1
    38    19    45    1
    39    19    46    1
    40    20    21    1
    41    20    47    1
    42    20    48    1
    43    21    22    1
    44    21    49    1
    45    21    50    1
    46    22    23    1
    47    23    24    1
    48    23    51    1
    49    23    52    1
    50    24    28    1
    51    24    25    2
    52    25    26    1
    53    26    27    1
    54    27    28    2
    55    28    29    1
    56    29    53    1
    57    29    54    1
    58    29    55    1
@<TRIPOS>SUBSTRUCTURE
     1 ZINC001087843226        1 TEMP              0 ****  ****    0 ROOT


##########                                Name:    ZINC001199210165
##########                DOCK_Rotatable_Bonds:                   5
##########                         Heavy_Atoms:                  23
##########                    Molecular_Weight:             375.225
##########                DOCK_Rotatable_Bonds:                   5
##########                       Formal_Charge:         -0.00999999
##########                     HBond_Acceptors:                   6
##########                        HBond_Donors:                   2
##########                         Heavy_Atoms:                  23
##########                          Grid_Score:          -27.668293
##########                     Grid_vdw_energy:          -27.325287
##########                      Grid_es_energy:           -0.343006
##########           Internal_energy_repulsive:            8.657475

@<TRIPOS>MOLECULE
ZINC001199210165
 38 40 1 0 0
SMALL
USER_CHARGES


@<TRIPOS>ATOM
      1 C1        -10.7855    0.1691   53.9351 C.3     1  ZINC001199210165   -0.1700
      2 C2         -9.8118    1.3430   53.8136 C.3     1  ZINC001199210165    0.0800
      3 C3         -9.6002    1.9748   55.1909 C.3     1  ZINC001199210165   -0.1500
      4 O4         -8.5605    0.8737   53.3075 O.3     1  ZINC001199210165   -0.3000
      5 C5         -7.7582    1.7869   52.7048 C.ar    1  ZINC001199210165    0.3300
      6 C6         -6.4980    1.4076   52.2626 C.ar    1  ZINC001199210165   -0.1300
      7 C7         -5.6840    2.3587   51.6442 C.ar    1  ZINC001199210165   -0.0600
      8 C8         -4.3322    2.0008   51.1558 C.2     1  ZINC001199210165    0.5700
      9 O9         -4.0914    0.8592   50.8161 O.2     1  ZINC001199210165   -0.4900
     10 N10        -3.3693    2.9414   51.0882 N.am    1  ZINC001199210165   -0.6600
     11 C11        -2.0933    2.6036   50.6272 C.ar    1  ZINC001199210165    0.2000
     12 C12        -1.9450    2.0099   49.3727 C.ar    1  ZINC001199210165   -0.1500
     13 C13        -0.7086    1.6741   48.9066 C.ar    1  ZINC001199210165   -0.0200
     14 C14         0.4237    1.9254   49.6897 C.ar    1  ZINC001199210165   -0.1700
     15 C15         1.8539    1.6989   49.5023 C.2     1  ZINC001199210165    0.0900
     16 Br16        2.6693    0.9191   47.9847 Br      1  ZINC001199210165    0.0600
     17 N17         2.4682    2.1305   50.5671 N.2     1  ZINC001199210165   -0.2100
     18 N18         1.5423    2.6433   51.4814 N.pl3   1  ZINC001199210165   -0.4900
     19 C19         0.2813    2.5244   50.9568 C.ar    1  ZINC001199210165    0.1500
     20 C20        -0.9874    2.8655   51.4150 C.ar    1  ZINC001199210165   -0.1700
     21 C21        -6.1800    3.6592   51.4979 C.ar    1  ZINC001199210165   -0.1900
     22 C22        -7.4447    3.9525   51.9659 C.ar    1  ZINC001199210165    0.1400
     23 N23        -8.1876    3.0265   52.5404 N.ar    1  ZINC001199210165   -0.5200
     24 H24       -10.3739   -0.5752   54.6169 H       1  ZINC001199210165    0.0600
     25 H25       -11.7399    0.5271   54.3211 H       1  ZINC001199210165    0.0700
     26 H26       -10.9362   -0.2810   52.9540 H       1  ZINC001199210165    0.0600
     27 H27       -10.2233    2.0873   53.1318 H       1  ZINC001199210165    0.0900
     28 H28        -9.1887    1.2306   55.8727 H       1  ZINC001199210165    0.0700
     29 H29        -8.9065    2.8112   55.1043 H       1  ZINC001199210165    0.0600
     30 H30       -10.5546    2.3328   55.5769 H       1  ZINC001199210165    0.0800
     31 H31        -6.1525    0.3929   52.3953 H       1  ZINC001199210165    0.1600
     32 H32        -3.5615    3.8527   51.3593 H       1  ZINC001199210165    0.4100
     33 H33        -2.8170    1.8145   48.7663 H       1  ZINC001199210165    0.1500
     34 H34        -0.6032    1.2147   47.9348 H       1  ZINC001199210165    0.1400
     35 H35         1.7578    3.0225   52.3478 H       1  ZINC001199210165    0.4500
     36 H36        -1.1081    3.3298   52.3827 H       1  ZINC001199210165    0.1400
     37 H37        -5.5807    4.4232   51.0253 H       1  ZINC001199210165    0.1400
     38 H38        -7.8334    4.9541   51.8566 H       1  ZINC001199210165    0.1700
@<TRIPOS>BOND
     1     1     2    1
     2     1    24    1
     3     1    25    1
     4     1    26    1
     5     2     3    1
     6     2     4    1
     7     2    27    1
     8     3    28    1
     9     3    29    1
    10     3    30    1
    11     4     5    1
    12     5    23   ar
    13     5     6   ar
    14     6     7   ar
    15     6    31    1
    16     7     8    1
    17     7    21   ar
    18     8     9    2
    19     8    10   am
    20    10    11    1
    21    10    32    1
    22    11    20   ar
    23    11    12   ar
    24    12    13   ar
    25    12    33    1
    26    13    14   ar
    27    13    34    1
    28    14    19   ar
    29    14    15    1
    30    15    16    1
    31    15    17    2
    32    17    18    1
    33    18    19    1
    34    18    35    1
    35    19    20   ar
    36    20    36    1
    37    21    22   ar
    38    21    37    1
    39    22    23   ar
    40    22    38    1
@<TRIPOS>SUBSTRUCTURE
     1 ZINC001199210165        1 TEMP              0 ****  ****    0 ROOT


##########                                Name:    ZINC001082278299
##########                DOCK_Rotatable_Bonds:                   9
##########                         Heavy_Atoms:                  25
##########                    Molecular_Weight:              346.47
##########                DOCK_Rotatable_Bonds:                   9
##########                       Formal_Charge:           0.0200001
##########                     HBond_Acceptors:                   5
##########                        HBond_Donors:                   1
##########                         Heavy_Atoms:                  25
##########                          Grid_Score:          -27.664181
##########                     Grid_vdw_energy:          -25.377522
##########                      Grid_es_energy:           -2.286659
##########           Internal_energy_repulsive:           84.148796

@<TRIPOS>MOLECULE
ZINC001082278299
 55 57 1 0 0
SMALL
USER_CHARGES


@<TRIPOS>ATOM
      1 C1        -14.7887   -3.5178   56.8525 C.3     1  ZINC001082278299   -0.1300
      2 C2        -14.0733   -2.5630   57.7731 C.2     1  ZINC001082278299    0.0000
      3 C3        -14.1800   -2.7043   59.0912 C.2     1  ZINC001082278299   -0.2300
      4 C4        -13.4816   -1.7724   59.9898 C.2     1  ZINC001082278299    0.5400
      5 O5        -14.1172   -0.9737   60.6508 O.2     1  ZINC001082278299   -0.5300
      6 N6        -12.1372   -1.8038   60.0807 N.am    1  ZINC001082278299   -0.7400
      7 C7        -11.4416   -0.8744   60.9744 C.3     1  ZINC001082278299    0.1300
      8 C8        -10.6859    0.1636   60.1424 C.3     1  ZINC001082278299    0.1400
      9 H9        -11.3983    0.8021   59.6199 H       1  ZINC001082278299    0.0800
     10 C10        -9.7904   -0.5480   59.1234 C.3     1  ZINC001082278299   -0.1300
     11 C11        -8.9349    0.4881   58.3907 C.3     1  ZINC001082278299   -0.1200
     12 C12        -8.0392    1.2154   59.3960 C.3     1  ZINC001082278299   -0.1400
     13 C13        -8.9148    1.9471   60.4181 C.3     1  ZINC001082278299    0.1100
     14 N14        -9.8443    0.9838   61.0245 N.am    1  ZINC001082278299   -0.6100
     15 C15        -9.9194    0.8516   62.3636 C.2     1  ZINC001082278299    0.5100
     16 O16       -10.6906    0.0531   62.8519 O.2     1  ZINC001082278299   -0.5100
     17 C17        -9.0451    1.6961   63.2544 C.3     1  ZINC001082278299   -0.1100
     18 C18        -9.2540    1.2932   64.6914 C.2     1  ZINC001082278299   -0.0900
     19 C19       -10.3452    1.6645   65.2924 C.2     1  ZINC001082278299   -0.1800
     20 C20       -10.6440    1.3225   66.7244 C.3     1  ZINC001082278299    0.0900
     21 O21        -9.7786    0.2768   67.1712 O.3     1  ZINC001082278299   -0.3800
     22 C22        -8.3970    0.5349   66.8917 C.3     1  ZINC001082278299    0.0600
     23 C23        -8.1950    0.4719   65.3735 C.3     1  ZINC001082278299   -0.1100
     24 C24       -13.2367   -1.4481   57.2001 C.3     1  ZINC001082278299   -0.1200
     25 C25       -13.8333   -0.6378   56.0476 C.3     1  ZINC001082278299   -0.1900
     26 C26       -13.7120   -0.0136   57.4393 C.3     1  ZINC001082278299   -0.1500
     27 H27       -15.7834   -3.1313   56.6300 H       1  ZINC001082278299    0.0800
     28 H28       -14.2238   -3.6215   55.9262 H       1  ZINC001082278299    0.0800
     29 H29       -14.8767   -4.4910   57.3354 H       1  ZINC001082278299    0.0700
     30 H30       -14.7796   -3.5033   59.5018 H       1  ZINC001082278299    0.1300
     31 H31       -11.6304   -2.4416   59.5543 H       1  ZINC001082278299    0.3900
     32 H32       -12.1684   -0.3703   61.6114 H       1  ZINC001082278299    0.0900
     33 H33       -10.7358   -1.4266   61.5948 H       1  ZINC001082278299    0.0800
     34 H34        -9.1419   -1.2553   59.6404 H       1  ZINC001082278299    0.0700
     35 H35       -10.4111   -1.0818   58.4038 H       1  ZINC001082278299    0.0800
     36 H36        -8.3145   -0.0132   57.6478 H       1  ZINC001082278299    0.0700
     37 H37        -9.5841    1.2095   57.8944 H       1  ZINC001082278299    0.0700
     38 H38        -7.4071    0.4916   59.9104 H       1  ZINC001082278299    0.0700
     39 H39        -7.4134    1.9367   58.8704 H       1  ZINC001082278299    0.0800
     40 H40        -8.2847    2.3843   61.1926 H       1  ZINC001082278299    0.0900
     41 H41        -9.4810    2.7329   59.9181 H       1  ZINC001082278299    0.0700
     42 H42        -7.9998    1.5478   62.9836 H       1  ZINC001082278299    0.1000
     43 H43        -9.3070    2.7469   63.1299 H       1  ZINC001082278299    0.1000
     44 H44       -11.0683    2.2444   64.7381 H       1  ZINC001082278299    0.1100
     45 H45       -10.4944    2.2056   67.3455 H       1  ZINC001082278299    0.0600
     46 H46       -11.6802    0.9950   66.8090 H       1  ZINC001082278299    0.1000
     47 H47        -8.1262    1.5239   67.2613 H       1  ZINC001082278299    0.0600
     48 H48        -7.7774   -0.2204   67.3750 H       1  ZINC001082278299    0.1000
     49 H49        -8.2604   -0.5643   65.0413 H       1  ZINC001082278299    0.0800
     50 H50        -7.2131    0.8722   65.1211 H       1  ZINC001082278299    0.0800
     51 H51       -12.1614   -1.6264   57.1867 H       1  ZINC001082278299    0.1300
     52 H52       -13.1507   -0.2829   55.2756 H       1  ZINC001082278299    0.1000
     53 H53       -14.8310   -0.9110   55.7039 H       1  ZINC001082278299    0.1000
     54 H54       -14.6299    0.1236   58.0110 H       1  ZINC001082278299    0.0900
     55 H55       -12.9496    0.7519   57.5828 H       1  ZINC001082278299    0.1000
@<TRIPOS>BOND
     1     1     2    1
     2     1    27    1
     3     1    28    1
     4     1    29    1
     5     2     3    2
     6     2    24    1
     7     3     4    1
     8     3    30    1
     9     4     5    2
    10     4     6   am
    11     6     7    1
    12     6    31    1
    13     7     8    1
    14     7    32    1
    15     7    33    1
    16     8     9    1
    17     8    14    1
    18     8    10    1
    19    10    11    1
    20    10    34    1
    21    10    35    1
    22    11    12    1
    23    11    36    1
    24    11    37    1
    25    12    13    1
    26    12    38    1
    27    12    39    1
    28    13    14    1
    29    13    40    1
    30    13    41    1
    31    14    15   am
    32    15    16    2
    33    15    17    1
    34    17    18    1
    35    17    42    1
    36    17    43    1
    37    18    23    1
    38    18    19    2
    39    19    20    1
    40    19    44    1
    41    20    21    1
    42    20    45    1
    43    20    46    1
    44    21    22    1
    45    22    23    1
    46    22    47    1
    47    22    48    1
    48    23    49    1
    49    23    50    1
    50    24    26    1
    51    24    25    1
    52    24    51    1
    53    25    26    1
    54    25    52    1
    55    25    53    1
    56    26    54    1
    57    26    55    1
@<TRIPOS>SUBSTRUCTURE
     1 ZINC001082278299        1 TEMP              0 ****  ****    0 ROOT


##########                                Name:    ZINC001490207225
##########                DOCK_Rotatable_Bonds:                   7
##########                         Heavy_Atoms:                  24
##########                    Molecular_Weight:             334.378
##########                DOCK_Rotatable_Bonds:                   7
##########                       Formal_Charge:           -0.010001
##########                     HBond_Acceptors:                   9
##########                        HBond_Donors:                   3
##########                         Heavy_Atoms:                  24
##########                          Grid_Score:          -27.663971
##########                     Grid_vdw_energy:          -26.627888
##########                      Grid_es_energy:           -1.036083
##########           Internal_energy_repulsive:            9.972365

@<TRIPOS>MOLECULE
ZINC001490207225
 46 48 1 0 0
SMALL
USER_CHARGES


@<TRIPOS>ATOM
      1 C1         -4.9114    2.1649   50.4498 C.3     1  ZINC001490207225    0.0900
      2 N2         -3.7543    2.5785   51.2475 N.pl3   1  ZINC001490207225   -0.3600
      3 C3         -2.5606    2.9546   50.7617 C.2     1  ZINC001490207225    0.1300
      4 C4         -1.7546    3.2635   51.8390 C.2     1  ZINC001490207225   -0.3000
      5 C5         -0.3555    3.7248   51.7816 C.2     1  ZINC001490207225    0.6200
      6 O6          0.0126    4.6398   52.4928 O.2     1  ZINC001490207225   -0.5400
      7 N7          0.5154    3.1323   50.9408 N.am    1  ZINC001490207225   -0.6200
      8 C8          0.2293    2.0240   50.0153 C.3     1  ZINC001490207225    0.1100
      9 C9          1.5281    1.2093   49.8986 C.3     1  ZINC001490207225   -0.1100
     10 H10         1.4855    0.2858   50.4762 H       1  ZINC001490207225    0.1000
     11 C11         1.8273    0.9476   48.4075 C.3     1  ZINC001490207225    0.1000
     12 N12         3.2789    1.2043   48.2645 N.am    1  ZINC001490207225   -0.6200
     13 C13         4.1722    0.5134   47.5288 C.2     1  ZINC001490207225    0.5300
     14 O14         5.3371    0.8507   47.5155 O.2     1  ZINC001490207225   -0.5300
     15 C15         3.7236   -0.6783   46.7229 C.3     1  ZINC001490207225    0.1200
     16 N16         3.4153   -0.2546   45.3548 N.am    1  ZINC001490207225   -0.7400
     17 C17         4.3716   -0.2928   44.4059 C.2     1  ZINC001490207225    0.7100
     18 N18         4.0876    0.0955   43.1469 N.am    1  ZINC001490207225   -0.8600
     19 O19         5.4906   -0.6776   44.6855 O.2     1  ZINC001490207225   -0.5900
     20 C20         3.5261    2.3926   49.1133 C.3     1  ZINC001490207225    0.1100
     21 C21         2.6509    2.1579   50.3931 C.3     1  ZINC001490207225   -0.0800
     22 C22         3.4680    1.5803   51.5505 C.3     1  ZINC001490207225   -0.1300
     23 C23         1.9369    3.4714   50.7639 C.3     1  ZINC001490207225    0.1000
     24 C24        -2.5218    3.0551   53.0071 C.2     1  ZINC001490207225    0.0700
     25 N25        -3.7089    2.6539   52.6441 N.2     1  ZINC001490207225   -0.2900
     26 H26        -5.5182    3.0380   50.2100 H       1  ZINC001490207225    0.0800
     27 H27        -4.5681    1.6966   49.5274 H       1  ZINC001490207225    0.0900
     28 H28        -5.5087    1.4523   51.0186 H       1  ZINC001490207225    0.1000
     29 H29        -2.2819    3.0059   49.7195 H       1  ZINC001490207225    0.1900
     30 H30        -0.5694    1.3993   50.4153 H       1  ZINC001490207225    0.0900
     31 H31        -0.0552    2.4161   49.0388 H       1  ZINC001490207225    0.0800
     32 H32         1.5972   -0.0861   48.1498 H       1  ZINC001490207225    0.0900
     33 H33         1.2569    1.6324   47.7799 H       1  ZINC001490207225    0.0900
     34 H34         4.5192   -1.4232   46.7020 H       1  ZINC001490207225    0.1000
     35 H35         2.8328   -1.1108   47.1788 H       1  ZINC001490207225    0.1000
     36 H36         2.5229    0.0535   45.1319 H       1  ZINC001490207225    0.4100
     37 H37         4.7756    0.0669   42.4637 H       1  ZINC001490207225    0.4000
     38 H38         3.1953    0.4036   42.9240 H       1  ZINC001490207225    0.4200
     39 H39         4.5791    2.4504   49.3885 H       1  ZINC001490207225    0.0900
     40 H40         3.2179    3.3005   48.5946 H       1  ZINC001490207225    0.0800
     41 H41         4.2589    2.2798   51.8215 H       1  ZINC001490207225    0.0700
     42 H42         2.8169    1.4176   52.4094 H       1  ZINC001490207225    0.0600
     43 H43         3.9105    0.6321   51.2452 H       1  ZINC001490207225    0.0600
     44 H44         2.0360    4.1929   49.9529 H       1  ZINC001490207225    0.0800
     45 H45         2.3585    3.8801   51.6822 H       1  ZINC001490207225    0.0900
     46 H46        -2.1857    3.2057   54.0223 H       1  ZINC001490207225    0.2000
@<TRIPOS>BOND
     1     1     2    1
     2     1    26    1
     3     1    27    1
     4     1    28    1
     5     2    25    1
     6     2     3    1
     7     3     4    2
     8     3    29    1
     9     4     5    1
    10     4    24    1
    11     5     6    2
    12     5     7   am
    13     7    23    1
    14     7     8    1
    15     8     9    1
    16     8    30    1
    17     8    31    1
    18     9    10    1
    19     9    21    1
    20     9    11    1
    21    11    12    1
    22    11    32    1
    23    11    33    1
    24    12    13   am
    25    12    20    1
    26    13    14    2
    27    13    15    1
    28    15    16    1
    29    15    34    1
    30    15    35    1
    31    16    17   am
    32    16    36    1
    33    17    18   am
    34    17    19    2
    35    18    37    1
    36    18    38    1
    37    20    21    1
    38    20    39    1
    39    20    40    1
    40    21    22    1
    41    21    23    1
    42    22    41    1
    43    22    42    1
    44    22    43    1
    45    23    44    1
    46    23    45    1
    47    24    25    2
    48    24    46    1
@<TRIPOS>SUBSTRUCTURE
     1 ZINC001490207225        1 TEMP              0 ****  ****    0 ROOT


##########                                Name:    ZINC000549659617
##########                DOCK_Rotatable_Bonds:                   9
##########                         Heavy_Atoms:                  28
##########                    Molecular_Weight:              418.48
##########                DOCK_Rotatable_Bonds:                   9
##########                       Formal_Charge:          0.00999956
##########                     HBond_Acceptors:                   9
##########                        HBond_Donors:                   1
##########                         Heavy_Atoms:                  28
##########                          Grid_Score:          -27.647726
##########                     Grid_vdw_energy:          -25.952545
##########                      Grid_es_energy:           -1.695180
##########           Internal_energy_repulsive:           23.450359

@<TRIPOS>MOLECULE
ZINC000549659617
 53 55 1 0 0
SMALL
USER_CHARGES


@<TRIPOS>ATOM
      1 C1         -7.3298    1.9276   57.8400 C.3     1  ZINC000549659617   -0.1500
      2 C2         -8.2561    1.1364   58.7658 C.3     1  ZINC000549659617   -0.1500
      3 C3         -9.6829    1.6743   58.6407 C.3     1  ZINC000549659617    0.1100
      4 N4        -10.6092    0.7638   59.3185 N.am    1  ZINC000549659617   -0.6100
      5 C5        -10.9350    0.9721   60.6096 C.2     1  ZINC000549659617    0.7100
      6 O6        -11.7049    0.2174   61.1717 O.2     1  ZINC000549659617   -0.5700
      7 N7        -10.4073    2.0170   61.2776 N.am    1  ZINC000549659617   -0.7400
      8 C8        -10.7629    2.2444   62.6806 C.3     1  ZINC000549659617    0.2300
      9 H9        -11.7258    1.7793   62.8914 H       1  ZINC000549659617    0.1100
     10 C10        -9.7075    1.6398   63.5705 C.ar    1  ZINC000549659617   -0.0900
     11 C11        -8.3847    1.6368   63.1699 C.ar    1  ZINC000549659617   -0.0800
     12 C12        -7.4165    1.0821   63.9863 C.ar    1  ZINC000549659617   -0.1100
     13 C13        -7.7714    0.5312   65.2032 C.ar    1  ZINC000549659617   -0.0700
     14 C14        -9.0946    0.5350   65.6043 C.ar    1  ZINC000549659617   -0.1800
     15 C15        -9.4816   -0.0662   66.9308 C.3     1  ZINC000549659617    0.5100
     16 F16       -10.6407    0.5573   67.4050 F       1  ZINC000549659617   -0.1800
     17 F17        -9.7208   -1.4353   66.7703 F       1  ZINC000549659617   -0.1700
     18 F18        -8.4425    0.1212   67.8486 F       1  ZINC000549659617   -0.1700
     19 C19       -10.0618    1.0933   64.7900 C.ar    1  ZINC000549659617   -0.0500
     20 C20       -10.8537    3.7484   62.9464 C.3     1  ZINC000549659617   -0.1700
     21 C21       -12.2445    4.3421   63.1782 C.3     1  ZINC000549659617   -0.1700
     22 C22       -11.2712    4.1939   64.3493 C.3     1  ZINC000549659617   -0.1800
     23 C23       -11.1813   -0.3730   58.5928 C.3     1  ZINC000549659617    0.1700
     24 H24       -12.2661   -0.3755   58.6991 H       1  ZINC000549659617    0.1100
     25 C25       -10.5960   -1.6903   59.1311 C.3     1  ZINC000549659617   -0.1400
     26 C26       -10.9420   -2.8243   58.1457 C.3     1  ZINC000549659617   -0.5900
     27 S27       -11.0921   -2.0087   56.5153 S.o2    1  ZINC000549659617    2.3900
     28 O28       -10.0160   -2.4189   55.6827 O.2     1  ZINC000549659617   -0.9300
     29 O29       -12.4302   -2.1260   56.0515 O.2     1  ZINC000549659617   -0.9400
     30 C30       -10.7948   -0.2946   57.0934 C.3     1  ZINC000549659617   -0.6100
     31 H31        -6.3133    1.5444   57.9292 H       1  ZINC000549659617    0.0600
     32 H32        -7.6691    1.8217   56.8097 H       1  ZINC000549659617    0.0600
     33 H33        -7.3473    2.9804   58.1219 H       1  ZINC000549659617    0.0600
     34 H34        -8.2386    0.0836   58.4840 H       1  ZINC000549659617    0.0700
     35 H35        -7.9168    1.2424   59.7962 H       1  ZINC000549659617    0.0700
     36 H36        -9.7410    2.6607   59.1009 H       1  ZINC000549659617    0.0800
     37 H37        -9.9522    1.7485   57.5871 H       1  ZINC000549659617    0.0900
     38 H38        -9.7922    2.6184   60.8295 H       1  ZINC000549659617    0.4000
     39 H39        -8.1074    2.0673   62.2191 H       1  ZINC000549659617    0.1300
     40 H40        -6.3830    1.0791   63.6730 H       1  ZINC000549659617    0.1400
     41 H41        -7.0152    0.0973   65.8406 H       1  ZINC000549659617    0.1400
     42 H42       -11.0953    1.0963   65.1033 H       1  ZINC000549659617    0.1400
     43 H43       -10.1249    4.3638   62.4189 H       1  ZINC000549659617    0.1100
     44 H44       -12.4311    5.3484   62.8030 H       1  ZINC000549659617    0.0900
     45 H45       -13.0950    3.6612   63.1413 H       1  ZINC000549659617    0.0900
     46 H46       -11.4812    3.4155   65.0827 H       1  ZINC000549659617    0.1200
     47 H47       -10.8174    5.1026   64.7446 H       1  ZINC000549659617    0.0900
     48 H48        -9.5134   -1.6006   59.2211 H       1  ZINC000549659617    0.1100
     49 H49       -11.0260   -1.9102   60.1084 H       1  ZINC000549659617    0.0900
     50 H50       -10.1431   -3.5656   58.1260 H       1  ZINC000549659617    0.1400
     51 H51       -11.8866   -3.2919   58.4233 H       1  ZINC000549659617    0.1400
     52 H52       -11.4367    0.4092   56.5636 H       1  ZINC000549659617    0.1400
     53 H53        -9.7451   -0.0243   56.9788 H       1  ZINC000549659617    0.1600
@<TRIPOS>BOND
     1     1     2    1
     2     1    31    1
     3     1    32    1
     4     1    33    1
     5     2     3    1
     6     2    34    1
     7     2    35    1
     8     3     4    1
     9     3    36    1
    10     3    37    1
    11     4     5   am
    12     4    23    1
    13     5     6    2
    14     5     7   am
    15     7     8    1
    16     7    38    1
    17     8     9    1
    18     8    10    1
    19     8    20    1
    20    10    19   ar
    21    10    11   ar
    22    11    12   ar
    23    11    39    1
    24    12    13   ar
    25    12    40    1
    26    13    14   ar
    27    13    41    1
    28    14    15    1
    29    14    19   ar
    30    15    16    1
    31    15    17    1
    32    15    18    1
    33    19    42    1
    34    20    22    1
    35    20    21    1
    36    20    43    1
    37    21    22    1
    38    21    44    1
    39    21    45    1
    40    22    46    1
    41    22    47    1
    42    23    24    1
    43    23    30    1
    44    23    25    1
    45    25    26    1
    46    25    48    1
    47    25    49    1
    48    26    27    1
    49    26    50    1
    50    26    51    1
    51    27    28    2
    52    27    29    2
    53    27    30    1
    54    30    52    1
    55    30    53    1
@<TRIPOS>SUBSTRUCTURE
     1 ZINC000549659617        1 TEMP              0 ****  ****    0 ROOT


##########                                Name:    ZINC000439870054
##########                DOCK_Rotatable_Bonds:                   5
##########                         Heavy_Atoms:                  27
##########                    Molecular_Weight:             421.974
##########                DOCK_Rotatable_Bonds:                   5
##########                       Formal_Charge:           0.0200003
##########                     HBond_Acceptors:                   9
##########                        HBond_Donors:                   0
##########                         Heavy_Atoms:                  27
##########                          Grid_Score:          -27.636391
##########                     Grid_vdw_energy:          -29.132904
##########                      Grid_es_energy:            1.496514
##########           Internal_energy_repulsive:           64.039795

@<TRIPOS>MOLECULE
ZINC000439870054
 47 50 1 0 0
SMALL
USER_CHARGES


@<TRIPOS>ATOM
      1 C1          2.0930    3.0601   52.3735 C.3     1  ZINC000439870054   -0.1400
      2 C2          0.8560    3.9227   52.6314 C.3     1  ZINC000439870054    0.0000
      3 C3          1.1377    5.3619   52.1947 C.3     1  ZINC000439870054   -0.1400
      4 C4         -0.3089    3.3783   51.8454 C.2     1  ZINC000439870054    0.1900
      5 N5         -0.2445    2.5594   50.8273 N.2     1  ZINC000439870054   -0.2900
      6 N6         -1.4330    2.3042   50.3978 N.2     1  ZINC000439870054   -0.2700
      7 C7         -2.2994    2.9473   51.1179 C.2     1  ZINC000439870054    0.1600
      8 C8         -3.8032    2.9714   50.9869 C.3     1  ZINC000439870054    0.2400
      9 H9         -4.0901    3.5303   50.0962 H       1  ZINC000439870054    0.1100
     10 C10        -4.3428    1.5422   50.9025 C.3     1  ZINC000439870054   -0.1300
     11 N11        -4.3296    3.6398   52.1921 N.am    1  ZINC000439870054   -0.6300
     12 C12        -5.4063    3.1531   52.8401 C.2     1  ZINC000439870054    0.5300
     13 O13        -5.9570    2.1517   52.4341 O.2     1  ZINC000439870054   -0.4900
     14 C14        -5.9261    3.8531   54.0693 C.3     1  ZINC000439870054   -0.0700
     15 C15        -7.1150    3.1015   54.6105 C.2     1  ZINC000439870054    0.0900
     16 C16        -8.2255    2.9178   53.8906 C.2     1  ZINC000439870054   -0.2400
     17 S17        -9.3717    2.0013   54.8664 S.3     1  ZINC000439870054    0.1300
     18 C18        -8.2054    1.9561   56.1861 C.2     1  ZINC000439870054    0.1400
     19 C19        -8.4172    1.3112   57.4911 C.2     1  ZINC000439870054   -0.1300
     20 C20        -9.5149    0.6078   57.8447 C.2     1  ZINC000439870054   -0.1000
     21 C21        -9.4835    0.0966   59.1241 C.2     1  ZINC000439870054   -0.1200
     22 C22        -8.3734    0.3742   59.8185 C.2     1  ZINC000439870054   -0.1500
     23 Cl23       -8.0602   -0.1381   61.4474 Cl      1  ZINC000439870054    0.0000
     24 S24        -7.2769    1.3299   58.8303 S.3     1  ZINC000439870054    0.2500
     25 N25        -7.1213    2.5820   55.8174 N.2     1  ZINC000439870054   -0.4400
     26 C26        -3.6455    4.8524   52.6666 C.3     1  ZINC000439870054    0.0900
     27 C27        -2.2146    4.4943   53.0852 C.3     1  ZINC000439870054    0.0900
     28 N28        -1.6133    3.6389   52.0631 N.pl3   1  ZINC000439870054   -0.4700
     29 H29         2.9356    3.4539   52.9418 H       1  ZINC000439870054    0.0700
     30 H30         1.8923    2.0348   52.6845 H       1  ZINC000439870054    0.0500
     31 H31         2.3324    3.0770   51.3102 H       1  ZINC000439870054    0.0700
     32 H32         0.6166    3.9059   53.6946 H       1  ZINC000439870054    0.0800
     33 H33         0.2565    5.9765   52.3785 H       1  ZINC000439870054    0.0500
     34 H34         1.9803    5.7557   52.7632 H       1  ZINC000439870054    0.0700
     35 H35         1.3772    5.3787   51.1316 H       1  ZINC000439870054    0.0700
     36 H36        -4.1983    1.0421   51.8601 H       1  ZINC000439870054    0.0600
     37 H37        -5.4060    1.5688   50.6633 H       1  ZINC000439870054    0.0900
     38 H38        -3.8088    0.9976   50.1239 H       1  ZINC000439870054    0.0700
     39 H39        -5.1427    3.8875   54.8265 H       1  ZINC000439870054    0.1100
     40 H40        -6.2256    4.8685   53.8098 H       1  ZINC000439870054    0.1200
     41 H41        -8.3923    3.2708   52.8836 H       1  ZINC000439870054    0.1800
     42 H42       -10.3512    0.4585   57.1778 H       1  ZINC000439870054    0.1500
     43 H43       -10.2949   -0.4850   59.5361 H       1  ZINC000439870054    0.1600
     44 H44        -3.6164    5.5909   51.8655 H       1  ZINC000439870054    0.0900
     45 H45        -4.1831    5.2626   53.5215 H       1  ZINC000439870054    0.1200
     46 H46        -1.6273    5.4064   53.1919 H       1  ZINC000439870054    0.1100
     47 H47        -2.2359    3.9606   54.0354 H       1  ZINC000439870054    0.0900
@<TRIPOS>BOND
     1     1     2    1
     2     1    29    1
     3     1    30    1
     4     1    31    1
     5     2     3    1
     6     2     4    1
     7     2    32    1
     8     3    33    1
     9     3    34    1
    10     3    35    1
    11     4    28    1
    12     4     5    2
    13     5     6    1
    14     6     7    2
    15     7    28    1
    16     7     8    1
    17     8     9    1
    18     8    10    1
    19     8    11    1
    20    10    36    1
    21    10    37    1
    22    10    38    1
    23    11    12   am
    24    11    26    1
    25    12    13    2
    26    12    14    1
    27    14    15    1
    28    14    39    1
    29    14    40    1
    30    15    25    1
    31    15    16    2
    32    16    17    1
    33    16    41    1
    34    17    18    1
    35    18    19    1
    36    18    25    2
    37    19    24    1
    38    19    20    2
    39    20    21    1
    40    20    42    1
    41    21    22    2
    42    21    43    1
    43    22    23    1
    44    22    24    1
    45    26    27    1
    46    26    44    1
    47    26    45    1
    48    27    28    1
    49    27    46    1
    50    27    47    1
@<TRIPOS>SUBSTRUCTURE
     1 ZINC000439870054        1 TEMP              0 ****  ****    0 ROOT


##########                                Name:    ZINC000611836474
##########                DOCK_Rotatable_Bonds:                   7
##########                         Heavy_Atoms:                  22
##########                    Molecular_Weight:             366.258
##########                DOCK_Rotatable_Bonds:                   7
##########                       Formal_Charge:          -0.0300004
##########                     HBond_Acceptors:                   5
##########                        HBond_Donors:                   1
##########                         Heavy_Atoms:                  22
##########                          Grid_Score:          -27.630817
##########                     Grid_vdw_energy:          -27.374422
##########                      Grid_es_energy:           -0.256395
##########           Internal_energy_repulsive:            6.382629

@<TRIPOS>MOLECULE
ZINC000611836474
 42 43 1 0 0
SMALL
USER_CHARGES


@<TRIPOS>ATOM
      1 C1        -10.0293   -0.4497   52.9064 C.3     1  ZINC000611836474   -0.1500
      2 C2         -8.8837    0.3187   53.5685 C.3     1  ZINC000611836474   -0.1400
      3 C3         -9.3648    0.9075   54.8962 C.3     1  ZINC000611836474    0.1300
      4 N4         -8.2735    1.6593   55.5209 N.pl3   1  ZINC000611836474   -0.3900
      5 N5         -7.2339    2.3148   54.8490 N.2     1  ZINC000611836474   -0.2900
      6 C6         -6.4549    2.8733   55.7396 C.2     1  ZINC000611836474    0.0600
      7 C7         -6.9684    2.5948   57.0091 C.2     1  ZINC000611836474   -0.2800
      8 C8         -8.0949    1.8480   56.8483 C.2     1  ZINC000611836474    0.3000
      9 N9         -8.9121    1.3591   57.8674 N.am    1  ZINC000611836474   -0.6500
     10 C10        -8.4656    0.3786   58.6773 C.2     1  ZINC000611836474    0.5200
     11 O11        -7.3527   -0.0775   58.5209 O.2     1  ZINC000611836474   -0.4700
     12 C12        -9.3492   -0.1508   59.7773 C.3     1  ZINC000611836474    0.0700
     13 H13       -10.2266    0.4881   59.8778 H       1  ZINC000611836474    0.1100
     14 C14        -8.5722   -0.1612   61.0952 C.3     1  ZINC000611836474   -0.1800
     15 O15        -9.7626   -1.4808   59.4576 O.3     1  ZINC000611836474   -0.2700
     16 C16       -11.1003   -1.7102   59.3835 C.ar    1  ZINC000611836474    0.1500
     17 C17       -11.9283   -1.3359   60.4310 C.ar    1  ZINC000611836474   -0.2000
     18 C18       -13.2880   -1.5702   60.3534 C.ar    1  ZINC000611836474   -0.0600
     19 C19       -13.8233   -2.1777   59.2330 C.ar    1  ZINC000611836474   -0.1100
     20 C20       -15.3065   -2.4323   59.1517 C.3     1  ZINC000611836474   -0.1100
     21 C21       -13.0005   -2.5517   58.1865 C.ar    1  ZINC000611836474   -0.0500
     22 C22       -11.6408   -2.3145   58.2565 C.ar    1  ZINC000611836474   -0.1200
     23 Br23      -10.5158   -2.8261   56.8253 Br      1  ZINC000611836474   -0.0300
     24 H24        -9.6865   -0.8690   51.9606 H       1  ZINC000611836474    0.0600
     25 H25       -10.3545   -1.2553   53.5646 H       1  ZINC000611836474    0.0600
     26 H26       -10.8628    0.2283   52.7225 H       1  ZINC000611836474    0.0600
     27 H27        -8.0502   -0.3591   53.7524 H       1  ZINC000611836474    0.0800
     28 H28        -8.5585    1.1244   52.9103 H       1  ZINC000611836474    0.0600
     29 H29       -10.2075    1.5743   54.7138 H       1  ZINC000611836474    0.0800
     30 H30        -9.6767    0.1008   55.5596 H       1  ZINC000611836474    0.1000
     31 H31        -5.5665    3.4505   55.5295 H       1  ZINC000611836474    0.1900
     32 H32        -6.5482    2.9176   57.9502 H       1  ZINC000611836474    0.1700
     33 H33        -9.8016    1.7248   57.9934 H       1  ZINC000611836474    0.4100
     34 H34        -8.2569    0.8533   61.3391 H       1  ZINC000611836474    0.0800
     35 H35        -9.2114   -0.5441   61.8908 H       1  ZINC000611836474    0.0800
     36 H36        -7.6949   -0.8001   60.9947 H       1  ZINC000611836474    0.0800
     37 H37       -11.5107   -0.8619   61.3071 H       1  ZINC000611836474    0.1400
     38 H38       -13.9329   -1.2788   61.1692 H       1  ZINC000611836474    0.1300
     39 H39       -15.7983   -1.5724   58.6968 H       1  ZINC000611836474    0.0700
     40 H40       -15.4902   -3.3189   58.5451 H       1  ZINC000611836474    0.0700
     41 H41       -15.7036   -2.5895   60.1546 H       1  ZINC000611836474    0.0700
     42 H42       -13.4212   -3.0262   57.3122 H       1  ZINC000611836474    0.1400
@<TRIPOS>BOND
     1     1     2    1
     2     1    24    1
     3     1    25    1
     4     1    26    1
     5     2     3    1
     6     2    27    1
     7     2    28    1
     8     3     4    1
     9     3    29    1
    10     3    30    1
    11     4     8    1
    12     4     5    1
    13     5     6    2
    14     6     7    1
    15     6    31    1
    16     7     8    2
    17     7    32    1
    18     8     9    1
    19     9    10   am
    20     9    33    1
    21    10    11    2
    22    10    12    1
    23    12    13    1
    24    12    14    1
    25    12    15    1
    26    14    34    1
    27    14    35    1
    28    14    36    1
    29    15    16    1
    30    16    22   ar
    31    16    17   ar
    32    17    18   ar
    33    17    37    1
    34    18    19   ar
    35    18    38    1
    36    19    20    1
    37    19    21   ar
    38    20    39    1
    39    20    40    1
    40    20    41    1
    41    21    22   ar
    42    21    42    1
    43    22    23    1
@<TRIPOS>SUBSTRUCTURE
     1 ZINC000611836474        1 TEMP              0 ****  ****    0 ROOT


##########                                Name:    ZINC000817655807
##########                DOCK_Rotatable_Bonds:                   3
##########                         Heavy_Atoms:                  24
##########                    Molecular_Weight:             352.774
##########                DOCK_Rotatable_Bonds:                   3
##########                       Formal_Charge:         3.35276e-07
##########                     HBond_Acceptors:                   8
##########                        HBond_Donors:                   0
##########                         Heavy_Atoms:                  24
##########                          Grid_Score:          -27.628834
##########                     Grid_vdw_energy:          -26.420919
##########                      Grid_es_energy:           -1.207914
##########           Internal_energy_repulsive:            4.969282

@<TRIPOS>MOLECULE
ZINC000817655807
 41 44 1 0 0
SMALL
USER_CHARGES


@<TRIPOS>ATOM
      1 C1         -7.4509    3.0377   57.3522 C.3     1  ZINC000817655807    0.1100
      2 N2         -7.8866    2.7640   55.9805 N.am    1  ZINC000817655807   -0.6400
      3 C3         -7.0089    2.3670   54.8650 C.3     1  ZINC000817655807    0.1000
      4 C4         -7.9795    2.2162   53.6901 C.3     1  ZINC000817655807    0.0500
      5 C5         -7.5845    2.9420   52.4039 C.3     1  ZINC000817655807    0.1200
      6 N6         -6.9770    1.6582   51.9953 N.am    1  ZINC000817655807   -0.6500
      7 C7         -5.9975    1.3091   51.1378 C.2     1  ZINC000817655807    0.5500
      8 O8         -5.7010    0.1414   50.9989 O.2     1  ZINC000817655807   -0.5100
      9 C9         -5.2709    2.3698   50.3518 C.3     1  ZINC000817655807   -0.0900
     10 C10        -3.9721    2.7035   51.0395 C.ar    1  ZINC000817655807   -0.0600
     11 C11        -2.7712    2.4702   50.3964 C.ar    1  ZINC000817655807   -0.0900
     12 C12        -1.5770    2.7732   51.0255 C.ar    1  ZINC000817655807   -0.0300
     13 Cl13       -0.0705    2.4783   50.2150 Cl      1  ZINC000817655807   -0.0500
     14 C14        -1.5826    3.3129   52.3038 C.ar    1  ZINC000817655807    0.0600
     15 O15        -0.3996    3.5987   52.9137 O.3     1  ZINC000817655807   -0.2900
     16 C16        -0.4531    4.4804   54.0406 C.3     1  ZINC000817655807    0.0200
     17 C17        -1.6019    4.0270   54.9516 C.3     1  ZINC000817655807    0.0200
     18 O18        -2.8192    4.0841   54.2000 O.3     1  ZINC000817655807   -0.3000
     19 C19        -2.7907    3.5507   52.9481 C.ar    1  ZINC000817655807    0.0600
     20 C20        -3.9843    3.2476   52.3101 C.ar    1  ZINC000817655807   -0.0900
     21 C21        -7.8720    0.9101   52.9027 C.3     1  ZINC000817655807    0.1100
     22 O22        -9.2818    2.5334   54.2332 O.3     1  ZINC000817655807   -0.3000
     23 C23        -9.1507    2.8281   55.5354 C.2     1  ZINC000817655807    0.6400
     24 O24       -10.0893    3.1324   56.2446 O.2     1  ZINC000817655807   -0.5100
     25 H25        -8.3146    3.3036   57.9616 H       1  ZINC000817655807    0.0900
     26 H26        -6.9740    2.1492   57.7661 H       1  ZINC000817655807    0.0700
     27 H27        -6.7398    3.8638   57.3496 H       1  ZINC000817655807    0.0700
     28 H28        -6.2735    3.1448   54.6587 H       1  ZINC000817655807    0.1000
     29 H29        -6.5169    1.4189   55.0815 H       1  ZINC000817655807    0.1000
     30 H30        -8.4333    3.2426   51.7897 H       1  ZINC000817655807    0.1100
     31 H31        -6.8611    3.7431   52.5548 H       1  ZINC000817655807    0.1000
     32 H32        -5.0656    2.0008   49.3469 H       1  ZINC000817655807    0.1100
     33 H33        -5.8900    3.2649   50.2907 H       1  ZINC000817655807    0.1100
     34 H34        -2.7650    2.0504   49.4013 H       1  ZINC000817655807    0.1400
     35 H35         0.4889    4.4358   54.5871 H       1  ZINC000817655807    0.1300
     36 H36        -0.6339    5.5003   53.7011 H       1  ZINC000817655807    0.0800
     37 H37        -1.4242    3.0049   55.2863 H       1  ZINC000817655807    0.0800
     38 H38        -1.6709    4.6901   55.8139 H       1  ZINC000817655807    0.1300
     39 H39        -4.9244    3.4335   52.8083 H       1  ZINC000817655807    0.1400
     40 H40        -7.3754    0.1072   53.4475 H       1  ZINC000817655807    0.1000
     41 H41        -8.8076    0.5973   52.4391 H       1  ZINC000817655807    0.1100
@<TRIPOS>BOND
     1     1     2    1
     2     1    25    1
     3     1    26    1
     4     1    27    1
     5     2    23   am
     6     2     3    1
     7     3     4    1
     8     3    28    1
     9     3    29    1
    10     4    21    1
    11     4     5    1
    12     4    22    1
    13     5     6    1
    14     5    30    1
    15     5    31    1
    16     6     7   am
    17     6    21    1
    18     7     8    2
    19     7     9    1
    20     9    10    1
    21     9    32    1
    22     9    33    1
    23    10    20   ar
    24    10    11   ar
    25    11    12   ar
    26    11    34    1
    27    12    13    1
    28    12    14   ar
    29    14    19   ar
    30    14    15    1
    31    15    16    1
    32    16    17    1
    33    16    35    1
    34    16    36    1
    35    17    18    1
    36    17    37    1
    37    17    38    1
    38    18    19    1
    39    19    20   ar
    40    20    39    1
    41    21    40    1
    42    21    41    1
    43    22    23    1
    44    23    24    2
@<TRIPOS>SUBSTRUCTURE
     1 ZINC000817655807        1 TEMP              0 ****  ****    0 ROOT


##########                                Name:    ZINC000464867530
##########                DOCK_Rotatable_Bonds:                   8
##########                         Heavy_Atoms:                  30
##########                    Molecular_Weight:              422.49
##########                DOCK_Rotatable_Bonds:                   8
##########                       Formal_Charge:         -0.00999994
##########                     HBond_Acceptors:                   7
##########                        HBond_Donors:                   0
##########                         Heavy_Atoms:                  30
##########                          Grid_Score:          -27.624737
##########                     Grid_vdw_energy:          -26.742783
##########                      Grid_es_energy:           -0.881953
##########           Internal_energy_repulsive:           28.700869

@<TRIPOS>MOLECULE
ZINC000464867530
 59 62 1 0 0
SMALL
USER_CHARGES


@<TRIPOS>ATOM
      1 C1        -15.0712   -2.5146   55.6981 C.3     1  ZINC000464867530   -0.1500
      2 C2        -15.3125   -2.1667   57.1684 C.3     1  ZINC000464867530   -0.1400
      3 C3        -14.4582   -3.0757   58.0543 C.3     1  ZINC000464867530    0.0900
      4 N4        -14.4045   -2.5249   59.4108 N.am    1  ZINC000464867530   -0.6100
      5 C5        -15.4034   -2.9263   60.4045 C.3     1  ZINC000464867530    0.0700
      6 C6        -16.5811   -1.9503   60.3668 C.3     1  ZINC000464867530    0.4300
      7 F7        -17.0200   -1.6986   61.6711 F       1  ZINC000464867530   -0.1700
      8 F8        -16.1742   -0.7512   59.7721 F       1  ZINC000464867530   -0.1800
      9 F9        -17.6259   -2.5089   59.6227 F       1  ZINC000464867530   -0.1800
     10 C10       -13.4360   -1.6490   59.7446 C.2     1  ZINC000464867530    0.5300
     11 O11       -13.3915   -1.1931   60.8676 O.2     1  ZINC000464867530   -0.5100
     12 C12       -12.4085   -1.2362   58.7225 C.3     1  ZINC000464867530   -0.1200
     13 H13       -12.8329   -1.3273   57.7226 H       1  ZINC000464867530    0.1000
     14 C14       -11.1793   -2.1402   58.8399 C.3     1  ZINC000464867530   -0.1200
     15 C15       -10.1487   -1.7429   57.7807 C.3     1  ZINC000464867530   -0.1300
     16 C16        -9.7086   -0.2952   58.0197 C.3     1  ZINC000464867530    0.1000
     17 N17       -10.9013    0.5622   58.0527 N.am    1  ZINC000464867530   -0.6100
     18 C18       -10.9913    1.6445   57.2545 C.2     1  ZINC000464867530    0.5500
     19 O19       -11.9804    2.3452   57.2922 O.2     1  ZINC000464867530   -0.5300
     20 C20        -9.8626    1.9840   56.3154 C.3     1  ZINC000464867530   -0.1700
     21 H21        -8.8589    1.8554   56.7204 H       1  ZINC000464867530    0.1300
     22 C22       -10.0852    3.1333   55.3283 C.3     1  ZINC000464867530   -0.1300
     23 C23       -10.0671    1.6906   54.8338 C.3     1  ZINC000464867530   -0.0600
     24 C24       -11.3476    1.0056   54.3281 C.3     1  ZINC000464867530   -0.0900
     25 C25       -10.7981   -0.2992   53.7102 C.3     1  ZINC000464867530   -0.0800
     26 C26        -9.3695    0.0163   53.3200 C.ar    1  ZINC000464867530   -0.0900
     27 C27        -8.5062   -0.6469   52.4650 C.ar    1  ZINC000464867530   -0.1100
     28 C28        -7.2266   -0.1690   52.2591 C.ar    1  ZINC000464867530   -0.1100
     29 C29        -6.8055    0.9758   52.9091 C.ar    1  ZINC000464867530   -0.1200
     30 C30        -7.6650    1.6396   53.7627 C.ar    1  ZINC000464867530   -0.1000
     31 C31        -8.9483    1.1632   53.9707 C.ar    1  ZINC000464867530   -0.0700
     32 C32       -11.9947    0.2176   58.9717 C.3     1  ZINC000464867530    0.1300
     33 H33       -14.0178   -2.3697   55.4585 H       1  ZINC000464867530    0.0600
     34 H34       -15.3443   -3.5549   55.5214 H       1  ZINC000464867530    0.0600
     35 H35       -15.6798   -1.8670   55.0669 H       1  ZINC000464867530    0.0600
     36 H36       -15.0394   -1.1264   57.3451 H       1  ZINC000464867530    0.0700
     37 H37       -16.3659   -2.3115   57.4079 H       1  ZINC000464867530    0.0700
     38 H38       -14.8987   -4.0722   58.0840 H       1  ZINC000464867530    0.0900
     39 H39       -13.4492   -3.1364   57.6466 H       1  ZINC000464867530    0.0900
     40 H40       -15.7575   -3.9320   60.1778 H       1  ZINC000464867530    0.1300
     41 H41       -14.9535   -2.9146   61.3972 H       1  ZINC000464867530    0.1200
     42 H42       -10.7411   -2.0304   59.8320 H       1  ZINC000464867530    0.0800
     43 H43       -11.4757   -3.1779   58.6870 H       1  ZINC000464867530    0.0800
     44 H44        -9.2834   -2.4023   57.8497 H       1  ZINC000464867530    0.0900
     45 H45       -10.5939   -1.8288   56.7895 H       1  ZINC000464867530    0.0700
     46 H46        -9.1822   -0.2257   58.9717 H       1  ZINC000464867530    0.0700
     47 H47        -9.0507    0.0250   57.2119 H       1  ZINC000464867530    0.0900
     48 H48       -11.0478    3.6436   55.3584 H       1  ZINC000464867530    0.1100
     49 H49        -9.2277    3.7600   55.0835 H       1  ZINC000464867530    0.1100
     50 H50       -12.0240    0.7886   55.1548 H       1  ZINC000464867530    0.0700
     51 H51       -11.8411    1.6156   53.5714 H       1  ZINC000464867530    0.0800
     52 H52       -10.8204   -1.1041   54.4448 H       1  ZINC000464867530    0.0800
     53 H53       -11.3785   -0.5741   52.8294 H       1  ZINC000464867530    0.0800
     54 H54        -8.8343   -1.5417   51.9570 H       1  ZINC000464867530    0.1200
     55 H55        -6.5559   -0.6894   51.5914 H       1  ZINC000464867530    0.1300
     56 H56        -5.8053    1.3508   52.7500 H       1  ZINC000464867530    0.1300
     57 H57        -7.3344    2.5338   54.2703 H       1  ZINC000464867530    0.1200
     58 H58       -12.8445    0.8762   58.7920 H       1  ZINC000464867530    0.1000
     59 H59       -11.6552    0.3287   60.0016 H       1  ZINC000464867530    0.0800
@<TRIPOS>BOND
     1     1     2    1
     2     1    33    1
     3     1    34    1
     4     1    35    1
     5     2     3    1
     6     2    36    1
     7     2    37    1
     8     3     4    1
     9     3    38    1
    10     3    39    1
    11     4     5    1
    12     4    10   am
    13     5     6    1
    14     5    40    1
    15     5    41    1
    16     6     7    1
    17     6     8    1
    18     6     9    1
    19    10    11    2
    20    10    12    1
    21    12    13    1
    22    12    32    1
    23    12    14    1
    24    14    15    1
    25    14    42    1
    26    14    43    1
    27    15    16    1
    28    15    44    1
    29    15    45    1
    30    16    17    1
    31    16    46    1
    32    16    47    1
    33    17    18   am
    34    17    32    1
    35    18    19    2
    36    18    20    1
    37    20    21    1
    38    20    23    1
    39    20    22    1
    40    22    23    1
    41    22    48    1
    42    22    49    1
    43    23    31    1
    44    23    24    1
    45    24    25    1
    46    24    50    1
    47    24    51    1
    48    25    26    1
    49    25    52    1
    50    25    53    1
    51    26    31   ar
    52    26    27   ar
    53    27    28   ar
    54    27    54    1
    55    28    29   ar
    56    28    55    1
    57    29    30   ar
    58    29    56    1
    59    30    31   ar
    60    30    57    1
    61    32    58    1
    62    32    59    1
@<TRIPOS>SUBSTRUCTURE
     1 ZINC000464867530        1 TEMP              0 ****  ****    0 ROOT


##########                                Name:    ZINC000588570917
##########                DOCK_Rotatable_Bonds:                   7
##########                         Heavy_Atoms:                  25
##########                    Molecular_Weight:             366.481
##########                DOCK_Rotatable_Bonds:                   7
##########                       Formal_Charge:          -0.0100006
##########                     HBond_Acceptors:                   7
##########                        HBond_Donors:                   1
##########                         Heavy_Atoms:                  25
##########                          Grid_Score:          -27.614763
##########                     Grid_vdw_energy:          -26.329210
##########                      Grid_es_energy:           -1.285553
##########           Internal_energy_repulsive:           15.212533

@<TRIPOS>MOLECULE
ZINC000588570917
 51 52 1 0 0
SMALL
USER_CHARGES


@<TRIPOS>ATOM
      1 C1         -6.9769    1.9309   66.9890 C.3     1  ZINC000588570917   -0.1300
      2 C2         -7.5334    1.3660   65.7076 C.2     1  ZINC000588570917   -0.0500
      3 C3         -8.3220    0.2952   65.7400 C.2     1  ZINC000588570917   -0.2000
      4 C4         -8.6574   -0.3541   67.0579 C.3     1  ZINC000588570917   -0.0900
      5 C5         -9.9261    0.2806   67.6308 C.3     1  ZINC000588570917   -0.1500
      6 C6         -8.8664   -0.2551   64.4895 C.2     1  ZINC000588570917    0.5600
      7 O7         -9.3440   -1.3736   64.4746 O.2     1  ZINC000588570917   -0.5100
      8 N8         -8.8361    0.4798   63.3603 N.am    1  ZINC000588570917   -0.6800
      9 C9         -9.3537   -0.0433   62.1713 C.ar    1  ZINC000588570917    0.2100
     10 C10        -8.4967   -0.4209   61.1457 C.ar    1  ZINC000588570917   -0.1700
     11 C11        -9.0112   -0.9378   59.9729 C.ar    1  ZINC000588570917    0.0000
     12 C12       -10.3782   -1.0796   59.8191 C.ar    1  ZINC000588570917   -0.7000
     13 S13       -11.0305   -1.7395   58.3212 S.o2    1  ZINC000588570917    2.6900
     14 O14       -10.1476   -2.7792   57.9228 O.2     1  ZINC000588570917   -0.9500
     15 O15       -12.4194   -1.9417   58.5432 O.2     1  ZINC000588570917   -0.9500
     16 N16       -10.9085   -0.5555   57.1698 N.am    1  ZINC000588570917   -1.0000
     17 C17       -10.1236   -0.7694   55.9436 C.3     1  ZINC000588570917    0.0900
     18 C18       -10.9954   -0.3938   54.7399 C.3     1  ZINC000588570917    0.0700
     19 H19       -11.8148   -1.1066   54.6472 H       1  ZINC000588570917    0.0700
     20 C20       -10.1477   -0.4216   53.4665 C.3     1  ZINC000588570917   -0.1500
     21 O21       -11.5248    0.9199   54.9337 O.3     1  ZINC000588570917   -0.3700
     22 C22       -12.3829    1.0432   56.0705 C.3     1  ZINC000588570917    0.0800
     23 H23       -12.7769    2.0582   56.1208 H       1  ZINC000588570917    0.1200
     24 C24       -13.5409    0.0509   55.9467 C.3     1  ZINC000588570917   -0.1900
     25 C25       -11.5868    0.7391   57.3398 C.3     1  ZINC000588570917    0.0900
     26 C26       -11.2343   -0.7051   60.8385 C.ar    1  ZINC000588570917    0.0000
     27 C27       -10.7259   -0.1921   62.0157 C.ar    1  ZINC000588570917   -0.1400
     28 H28        -6.3584    2.7998   66.7646 H       1  ZINC000588570917    0.0600
     29 H29        -7.7977    2.2281   67.6417 H       1  ZINC000588570917    0.0800
     30 H30        -6.3721    1.1734   67.4877 H       1  ZINC000588570917    0.0800
     31 H31        -7.2919    1.8303   64.7629 H       1  ZINC000588570917    0.1300
     32 H32        -8.8215   -1.4209   66.9061 H       1  ZINC000588570917    0.0700
     33 H33        -7.8320   -0.2090   67.7549 H       1  ZINC000588570917    0.0800
     34 H34       -10.7516    0.1355   66.9338 H       1  ZINC000588570917    0.0500
     35 H35       -10.1688   -0.1890   68.5841 H       1  ZINC000588570917    0.0600
     36 H36        -9.7621    1.3475   67.7826 H       1  ZINC000588570917    0.0600
     37 H37        -8.4552    1.3718   63.3722 H       1  ZINC000588570917    0.4100
     38 H38        -7.4289   -0.3101   61.2650 H       1  ZINC000588570917    0.1400
     39 H39        -8.3453   -1.2313   59.1749 H       1  ZINC000588570917    0.1400
     40 H40        -9.2337   -0.1403   55.9629 H       1  ZINC000588570917    0.0900
     41 H41        -9.8316   -1.8172   55.8727 H       1  ZINC000588570917    0.1000
     42 H42        -9.7414   -1.4227   53.3221 H       1  ZINC000588570917    0.0700
     43 H43       -10.7681   -0.1545   52.6110 H       1  ZINC000588570917    0.0700
     44 H44        -9.3294    0.2927   53.5590 H       1  ZINC000588570917    0.0700
     45 H45       -13.1461   -0.9639   55.8983 H       1  ZINC000588570917    0.0600
     46 H46       -14.1946    0.1455   56.8138 H       1  ZINC000588570917    0.0700
     47 H47       -14.1068    0.2643   55.0399 H       1  ZINC000588570917    0.0700
     48 H48       -12.2620    0.6922   58.1942 H       1  ZINC000588570917    0.1000
     49 H49       -10.8425    1.5189   57.5019 H       1  ZINC000588570917    0.0900
     50 H50       -12.3013   -0.8171   60.7152 H       1  ZINC000588570917    0.1400
     51 H51       -11.3951    0.0999   62.8116 H       1  ZINC000588570917    0.1500
@<TRIPOS>BOND
     1     1     2    1
     2     1    28    1
     3     1    29    1
     4     1    30    1
     5     2     3    2
     6     2    31    1
     7     3     4    1
     8     3     6    1
     9     4     5    1
    10     4    32    1
    11     4    33    1
    12     5    34    1
    13     5    35    1
    14     5    36    1
    15     6     7    2
    16     6     8   am
    17     8     9    1
    18     8    37    1
    19     9    27   ar
    20     9    10   ar
    21    10    11   ar
    22    10    38    1
    23    11    12   ar
    24    11    39    1
    25    12    13    1
    26    12    26   ar
    27    13    14    2
    28    13    15    2
    29    13    16   am
    30    16    25    1
    31    16    17    1
    32    17    18    1
    33    17    40    1
    34    17    41    1
    35    18    19    1
    36    18    20    1
    37    18    21    1
    38    20    42    1
    39    20    43    1
    40    20    44    1
    41    21    22    1
    42    22    23    1
    43    22    24    1
    44    22    25    1
    45    24    45    1
    46    24    46    1
    47    24    47    1
    48    25    48    1
    49    25    49    1
    50    26    27   ar
    51    26    50    1
    52    27    51    1
@<TRIPOS>SUBSTRUCTURE
     1 ZINC000588570917        1 TEMP              0 ****  ****    0 ROOT


##########                                Name:    ZINC000643274279
##########                DOCK_Rotatable_Bonds:                   6
##########                         Heavy_Atoms:                  29
##########                    Molecular_Weight:             392.454
##########                DOCK_Rotatable_Bonds:                   6
##########                       Formal_Charge:         -0.00999939
##########                     HBond_Acceptors:                   6
##########                        HBond_Donors:                   2
##########                         Heavy_Atoms:                  29
##########                          Grid_Score:          -27.593670
##########                     Grid_vdw_energy:          -28.035324
##########                      Grid_es_energy:            0.441654
##########           Internal_energy_repulsive:            8.745492

@<TRIPOS>MOLECULE
ZINC000643274279
 53 56 1 0 0
SMALL
USER_CHARGES


@<TRIPOS>ATOM
      1 O1         -8.8998    3.4317   57.2201 O.2     1  ZINC000643274279   -0.4900
      2 C2         -9.0266    2.2269   57.1449 C.2     1  ZINC000643274279    0.5100
      3 N3         -8.2048    1.5108   56.3522 N.am    1  ZINC000643274279   -0.6400
      4 C4         -7.2103    2.1563   55.6122 C.ar    1  ZINC000643274279    0.1300
      5 C5         -6.2239    2.8870   56.2651 C.ar    1  ZINC000643274279   -0.1000
      6 C6         -5.2416    3.5394   55.5400 C.ar    1  ZINC000643274279   -0.1000
      7 C7         -5.2417    3.4662   54.1646 C.ar    1  ZINC000643274279   -0.0600
      8 C8         -4.2081    4.2375   53.3627 C.3     1  ZINC000643274279   -0.0900
      9 C9         -3.2632    3.2534   52.6824 C.3     1  ZINC000643274279   -0.1200
     10 C10        -3.8002    2.8095   51.3300 C.3     1  ZINC000643274279   -0.1100
     11 C11        -4.9914    1.8886   51.4112 C.3     1  ZINC000643274279   -0.1600
     12 C12        -6.1703    2.6145   52.0299 C.2     1  ZINC000643274279    0.4100
     13 O13        -7.0464    3.0924   51.3413 O.2     1  ZINC000643274279   -0.4400
     14 C14        -6.2116    2.7168   53.4991 C.ar    1  ZINC000643274279   -0.1300
     15 C15        -7.2060    2.0616   54.2281 C.ar    1  ZINC000643274279   -0.1000
     16 C16       -10.0895    1.5372   57.9358 C.2     1  ZINC000643274279    0.5200
     17 O17       -11.2404    1.5560   57.5513 O.2     1  ZINC000643274279   -0.5000
     18 N18        -9.7704    0.8941   59.0763 N.am    1  ZINC000643274279   -0.5800
     19 C19        -8.4189    0.7926   59.6564 C.3     1  ZINC000643274279    0.0900
     20 C20        -8.6535    0.5454   61.1675 C.3     1  ZINC000643274279   -0.1400
     21 C21        -9.9044   -0.3721   61.1426 C.3     1  ZINC000643274279   -0.1200
     22 C22       -10.7137    0.1827   59.9515 C.3     1  ZINC000643274279    0.1800
     23 H23       -11.4814    0.8676   60.3118 H       1  ZINC000643274279    0.0900
     24 C24       -11.3539   -0.9518   59.1940 C.ar    1  ZINC000643274279   -0.1000
     25 C25       -12.6631   -1.3077   59.4605 C.ar    1  ZINC000643274279   -0.0900
     26 C26       -13.2523   -2.3474   58.7675 C.ar    1  ZINC000643274279   -0.1400
     27 C27       -12.5293   -3.0343   57.8031 C.ar    1  ZINC000643274279    0.1100
     28 O28       -13.1068   -4.0572   57.1197 O.3     1  ZINC000643274279   -0.5000
     29 C29       -11.2160   -2.6750   57.5372 C.ar    1  ZINC000643274279   -0.1400
     30 C30       -10.6329   -1.6315   58.2295 C.ar    1  ZINC000643274279   -0.0900
     31 H31        -8.3037    0.5476   56.2953 H       1  ZINC000643274279    0.4200
     32 H32        -6.2243    2.9464   57.3435 H       1  ZINC000643274279    0.1400
     33 H33        -4.4770    4.1049   56.0517 H       1  ZINC000643274279    0.1400
     34 H34        -4.7102    4.8415   52.6070 H       1  ZINC000643274279    0.0800
     35 H35        -3.6398    4.8860   54.0295 H       1  ZINC000643274279    0.0800
     36 H36        -2.2932    3.7302   52.5416 H       1  ZINC000643274279    0.0800
     37 H37        -3.1395    2.3788   53.3212 H       1  ZINC000643274279    0.0700
     38 H38        -4.0848    3.6953   50.7623 H       1  ZINC000643274279    0.0700
     39 H39        -3.0026    2.2980   50.7912 H       1  ZINC000643274279    0.0800
     40 H40        -5.2586    1.5541   50.4088 H       1  ZINC000643274279    0.0900
     41 H41        -4.7380    1.0230   52.0234 H       1  ZINC000643274279    0.0900
     42 H42        -7.9672    1.4894   53.7188 H       1  ZINC000643274279    0.1300
     43 H43        -7.8782   -0.0443   59.2145 H       1  ZINC000643274279    0.0800
     44 H44        -7.8703    1.7223   59.5047 H       1  ZINC000643274279    0.1000
     45 H45        -7.8023    0.0335   61.6164 H       1  ZINC000643274279    0.0900
     46 H46        -8.8644    1.4796   61.6881 H       1  ZINC000643274279    0.0800
     47 H47        -9.6184   -1.4095   60.9694 H       1  ZINC000643274279    0.0800
     48 H48       -10.4712   -0.2766   62.0688 H       1  ZINC000643274279    0.0900
     49 H49       -13.2255   -0.7727   60.2114 H       1  ZINC000643274279    0.1200
     50 H50       -14.2747   -2.6255   58.9766 H       1  ZINC000643274279    0.1300
     51 H51       -12.4944   -4.5483   56.5550 H       1  ZINC000643274279    0.3900
     52 H52       -10.6510   -3.2085   56.7871 H       1  ZINC000643274279    0.1300
     53 H53        -9.6107   -1.3512   58.0227 H       1  ZINC000643274279    0.1300
@<TRIPOS>BOND
     1     1     2    2
     2     2     3   am
     3     2    16    1
     4     3     4    1
     5     3    31    1
     6     4    15   ar
     7     4     5   ar
     8     5     6   ar
     9     5    32    1
    10     6     7   ar
    11     6    33    1
    12     7    14   ar
    13     7     8    1
    14     8     9    1
    15     8    34    1
    16     8    35    1
    17     9    10    1
    18     9    36    1
    19     9    37    1
    20    10    11    1
    21    10    38    1
    22    10    39    1
    23    11    12    1
    24    11    40    1
    25    11    41    1
    26    12    13    2
    27    12    14    1
    28    14    15   ar
    29    15    42    1
    30    16    17    2
    31    16    18   am
    32    18    22    1
    33    18    19    1
    34    19    20    1
    35    19    43    1
    36    19    44    1
    37    20    21    1
    38    20    45    1
    39    20    46    1
    40    21    22    1
    41    21    47    1
    42    21    48    1
    43    22    23    1
    44    22    24    1
    45    24    30   ar
    46    24    25   ar
    47    25    26   ar
    48    25    49    1
    49    26    27   ar
    50    26    50    1
    51    27    28    1
    52    27    29   ar
    53    28    51    1
    54    29    30   ar
    55    29    52    1
    56    30    53    1
@<TRIPOS>SUBSTRUCTURE
     1 ZINC000643274279        1 TEMP              0 ****  ****    0 ROOT


##########                                Name:    ZINC000928803822
##########                DOCK_Rotatable_Bonds:                   7
##########                         Heavy_Atoms:                  21
##########                    Molecular_Weight:             364.165
##########                DOCK_Rotatable_Bonds:                   7
##########                       Formal_Charge:         -0.00999978
##########                     HBond_Acceptors:                   7
##########                        HBond_Donors:                   1
##########                         Heavy_Atoms:                  21
##########                          Grid_Score:          -27.583099
##########                     Grid_vdw_energy:          -27.383343
##########                      Grid_es_energy:           -0.199756
##########           Internal_energy_repulsive:           10.960156

@<TRIPOS>MOLECULE
ZINC000928803822
 34 34 1 0 0
SMALL
USER_CHARGES


@<TRIPOS>ATOM
      1 C1         -5.3193    1.2624   50.4977 C.3     1  ZINC000928803822    0.0900
      2 N2         -4.7818    2.5772   50.8567 N.pl3   1  ZINC000928803822   -0.6300
      3 C3         -5.6868    3.7160   51.0300 C.3     1  ZINC000928803822    0.0900
      4 C4         -3.4061    2.7448   51.0337 C.ar    1  ZINC000928803822    0.2200
      5 C5         -2.9297    3.4989   52.0993 C.ar    1  ZINC000928803822   -0.1500
      6 C6         -1.5685    3.6678   52.2789 C.ar    1  ZINC000928803822   -0.0500
      7 Br7        -0.9298    4.6952   53.7322 Br      1  ZINC000928803822   -0.0400
      8 C8         -0.6747    3.0881   51.4004 C.ar    1  ZINC000928803822   -0.1200
      9 C9         -1.1439    2.3287   50.3271 C.ar    1  ZINC000928803822   -0.0800
     10 C10        -0.1890    1.7068   49.3850 C.2     1  ZINC000928803822    0.5700
     11 O11        -0.5197    1.4970   48.2342 O.2     1  ZINC000928803822   -0.5100
     12 N12         1.0483    1.3725   49.8020 N.am    1  ZINC000928803822   -0.7200
     13 C13         1.9939    0.7548   48.8691 C.3     1  ZINC000928803822    0.1100
     14 H14         1.4489    0.1370   48.1553 H       1  ZINC000928803822    0.1400
     15 C15         2.9824   -0.1162   49.6469 C.3     1  ZINC000928803822   -0.0300
     16 C16         3.5450    0.6587   50.7648 C.1     1  ZINC000928803822    0.2000
     17 N17         3.9793    1.2567   51.6275 N.1     1  ZINC000928803822   -0.4000
     18 C18         2.7577    1.8476   48.1188 C.3     1  ZINC000928803822    0.4400
     19 F19         1.9730    2.3244   47.0633 F       1  ZINC000928803822   -0.1800
     20 F20         3.0491    2.8986   48.9950 F       1  ZINC000928803822   -0.1700
     21 F21         3.9497    1.3192   47.6118 F       1  ZINC000928803822   -0.1600
     22 C22        -2.5161    2.1539   50.1495 C.ar    1  ZINC000928803822   -0.1200
     23 H23        -5.3524    1.1675   49.4123 H       1  ZINC000928803822    0.0600
     24 H24        -4.6792    0.4829   50.9111 H       1  ZINC000928803822    0.0700
     25 H25        -6.3260    1.1585   50.9025 H       1  ZINC000928803822    0.0700
     26 H26        -6.0114    3.7673   52.0693 H       1  ZINC000928803822    0.0500
     27 H27        -5.1668    4.6368   50.7659 H       1  ZINC000928803822    0.0700
     28 H28        -6.5557    3.5913   50.3839 H       1  ZINC000928803822    0.0700
     29 H29        -3.6242    3.9550   52.7892 H       1  ZINC000928803822    0.1400
     30 H30         0.3873    3.2224   51.5436 H       1  ZINC000928803822    0.1300
     31 H31         1.3127    1.5411   50.7200 H       1  ZINC000928803822    0.4100
     32 H32         2.4654   -0.9932   50.0366 H       1  ZINC000928803822    0.1400
     33 H33         3.7870   -0.4337   48.9835 H       1  ZINC000928803822    0.1300
     34 H34        -2.8846    1.5675   49.3209 H       1  ZINC000928803822    0.1500
@<TRIPOS>BOND
     1     1     2    1
     2     1    23    1
     3     1    24    1
     4     1    25    1
     5     2     3    1
     6     2     4    1
     7     3    26    1
     8     3    27    1
     9     3    28    1
    10     4    22   ar
    11     4     5   ar
    12     5     6   ar
    13     5    29    1
    14     6     7    1
    15     6     8   ar
    16     8     9   ar
    17     8    30    1
    18     9    10    1
    19     9    22   ar
    20    10    11    2
    21    10    12   am
    22    12    13    1
    23    12    31    1
    24    13    14    1
    25    13    15    1
    26    13    18    1
    27    15    16    1
    28    15    32    1
    29    15    33    1
    30    16    17    3
    31    18    19    1
    32    18    20    1
    33    18    21    1
    34    22    34    1
@<TRIPOS>SUBSTRUCTURE
     1 ZINC000928803822        1 TEMP              0 ****  ****    0 ROOT


##########                                Name:    ZINC000274267583
##########                DOCK_Rotatable_Bonds:                   5
##########                         Heavy_Atoms:                  24
##########                    Molecular_Weight:             349.407
##########                DOCK_Rotatable_Bonds:                   5
##########                       Formal_Charge:           0.0300001
##########                     HBond_Acceptors:                   7
##########                        HBond_Donors:                   1
##########                         Heavy_Atoms:                  24
##########                          Grid_Score:          -27.559998
##########                     Grid_vdw_energy:          -27.805416
##########                      Grid_es_energy:            0.245419
##########           Internal_energy_repulsive:           15.349960

@<TRIPOS>MOLECULE
ZINC000274267583
 43 45 1 0 0
SMALL
USER_CHARGES


@<TRIPOS>ATOM
      1 C1        -10.2008    6.3309   51.3563 C.3     1  ZINC000274267583    0.0200
      2 O2         -9.8155    5.3753   52.3463 O.3     1  ZINC000274267583   -0.3100
      3 C3         -8.8084    4.5224   52.0215 C.ar    1  ZINC000274267583    0.1900
      4 C4         -8.1991    4.6082   50.7781 C.ar    1  ZINC000274267583   -0.2300
      5 C5         -7.1753    3.7403   50.4506 C.ar    1  ZINC000274267583    0.0300
      6 C6         -6.7581    2.7866   51.3606 C.ar    1  ZINC000274267583   -0.7200
      7 S7         -5.4526    1.6809   50.9396 S.o2    1  ZINC000274267583    2.7000
      8 O8         -5.9230    0.3731   51.2358 O.2     1  ZINC000274267583   -0.9500
      9 O9         -4.9972    2.0697   49.6509 O.2     1  ZINC000274267583   -0.9500
     10 N10        -4.2033    1.9765   51.9858 N.am    1  ZINC000274267583   -1.1100
     11 C11        -3.5875    3.3049   52.0347 C.3     1  ZINC000274267583    0.2100
     12 H12        -4.0797    3.9594   51.3154 H       1  ZINC000274267583    0.1000
     13 C13        -3.7428    3.8866   53.4420 C.3     1  ZINC000274267583   -0.1800
     14 C14        -2.8475    5.1273   53.5523 C.3     1  ZINC000274267583    0.0600
     15 O15        -1.4863    4.7127   53.4299 O.3     1  ZINC000274267583   -0.3100
     16 C16        -1.1616    3.8975   52.3915 C.ar    1  ZINC000274267583    0.1100
     17 C17         0.1778    3.7786   52.0365 C.ar    1  ZINC000274267583   -0.1100
     18 C18         0.5508    2.9581   50.9917 C.ar    1  ZINC000274267583   -0.1600
     19 C19        -0.4134    2.2481   50.2922 C.ar    1  ZINC000274267583    0.0900
     20 O20        -0.0494    1.4363   49.2638 O.3     1  ZINC000274267583   -0.3200
     21 C21         1.3474    1.3367   48.9789 C.3     1  ZINC000274267583    0.0300
     22 C22        -1.7486    2.3673   50.6434 C.ar    1  ZINC000274267583   -0.1000
     23 C23        -2.1238    3.1923   51.6911 C.ar    1  ZINC000274267583   -0.1400
     24 C24        -7.3635    2.6994   52.6007 C.ar    1  ZINC000274267583    0.0200
     25 C25        -8.3842    3.5683   52.9350 C.ar    1  ZINC000274267583   -0.1700
     26 H26        -9.3482    6.9643   51.1113 H       1  ZINC000274267583    0.0600
     27 H27       -10.5360    5.8099   50.4594 H       1  ZINC000274267583    0.0600
     28 H28       -11.0123    6.9475   51.7429 H       1  ZINC000274267583    0.1100
     29 H29        -8.5250    5.3524   50.0667 H       1  ZINC000274267583    0.1400
     30 H30        -6.7007    3.8068   49.4828 H       1  ZINC000274267583    0.1400
     31 H31        -3.8791    1.2699   52.5661 H       1  ZINC000274267583    0.4200
     32 H32        -4.7824    4.1675   53.6108 H       1  ZINC000274267583    0.1000
     33 H33        -3.4372    3.1462   54.1813 H       1  ZINC000274267583    0.0900
     34 H34        -3.0911    5.8279   52.7536 H       1  ZINC000274267583    0.0700
     35 H35        -3.0001    5.6053   54.5199 H       1  ZINC000274267583    0.1200
     36 H36         0.9293    4.3313   52.5809 H       1  ZINC000274267583    0.1400
     37 H37         1.5920    2.8692   50.7189 H       1  ZINC000274267583    0.1400
     38 H38         1.7379    2.3225   48.7262 H       1  ZINC000274267583    0.0600
     39 H39         1.8703    0.9524   49.8547 H       1  ZINC000274267583    0.0600
     40 H40         1.4994    0.6593   48.1386 H       1  ZINC000274267583    0.1000
     41 H41        -2.4994    1.8146   50.0984 H       1  ZINC000274267583    0.1300
     42 H42        -7.0357    1.9538   53.3100 H       1  ZINC000274267583    0.1500
     43 H43        -8.8567    3.4998   53.9037 H       1  ZINC000274267583    0.1400
@<TRIPOS>BOND
     1     1     2    1
     2     1    26    1
     3     1    27    1
     4     1    28    1
     5     2     3    1
     6     3    25   ar
     7     3     4   ar
     8     4     5   ar
     9     4    29    1
    10     5     6   ar
    11     5    30    1
    12     6     7    1
    13     6    24   ar
    14     7     8    2
    15     7     9    2
    16     7    10   am
    17    10    11    1
    18    10    31    1
    19    11    12    1
    20    11    23    1
    21    11    13    1
    22    13    14    1
    23    13    32    1
    24    13    33    1
    25    14    15    1
    26    14    34    1
    27    14    35    1
    28    15    16    1
    29    16    23   ar
    30    16    17   ar
    31    17    18   ar
    32    17    36    1
    33    18    19   ar
    34    18    37    1
    35    19    20    1
    36    19    22   ar
    37    20    21    1
    38    21    38    1
    39    21    39    1
    40    21    40    1
    41    22    23   ar
    42    22    41    1
    43    24    25   ar
    44    24    42    1
    45    25    43    1
@<TRIPOS>SUBSTRUCTURE
     1 ZINC000274267583        1 TEMP              0 ****  ****    0 ROOT


##########                                Name:     oleObject15.pdb
##########                DOCK_Rotatable_Bonds:                   9
##########                         Heavy_Atoms:                  29
##########                    Molecular_Weight:             395.545
##########                DOCK_Rotatable_Bonds:                   9
##########                       Formal_Charge:         0.000700183
##########                     HBond_Acceptors:                   5
##########                        HBond_Donors:                   1
##########                         Heavy_Atoms:                  29
##########                          Grid_Score:          -27.542624
##########                     Grid_vdw_energy:          -26.986959
##########                      Grid_es_energy:           -0.555664
##########           Internal_energy_repulsive:           12.232769

@<TRIPOS>MOLECULE
oleObject15.pdb
 62 64 1 0 0
SMALL
NO_CHARGES


@<TRIPOS>ATOM
      1 O          -2.2728    4.2011   55.9922 O.3     1  UNL        -0.3745
      2 C          -3.6478    4.1976   56.4384 C.3     1  UNL         0.0600
      3 C          -4.5689    4.2066   55.1964 C.3     1  UNL         0.0217
      4 N          -6.0141    4.0860   55.5001 N.4     1  UNL        -0.3010
      5 C          -6.6419    2.8295   55.0309 C.3     1  UNL        -0.0010
      6 C          -8.1688    2.8292   55.2622 C.3     1  UNL        -0.0289
      7 C          -8.5544    3.1300   56.7305 C.3     1  UNL         0.0382
      8 C          -7.8158    4.3996   57.2244 C.3     1  UNL        -0.0289
      9 C          -6.2997    4.3858   56.9192 C.3     1  UNL        -0.0010
     10 C          -8.3059    1.9084   57.6498 C.2     1  UNL         0.2156
     11 O          -7.3940    1.1266   57.4498 O.2     1  UNL        -0.2774
     12 N          -9.1090    1.7089   58.7654 N.am    1  UNL        -0.3025
     13 C          -9.0267    0.6138   59.7502 C.3     1  UNL         0.0900
     14 C          -8.7769    1.1105   61.1730 C.ar    1  UNL        -0.0217
     15 C          -9.2558    2.3649   61.6018 C.ar    1  UNL        -0.0568
     16 C          -9.0065    2.8117   62.9098 C.ar    1  UNL        -0.0619
     17 C          -8.2795    2.0070   63.8008 C.ar    1  UNL        -0.0622
     18 C          -7.8045    0.7539   63.3834 C.ar    1  UNL        -0.0619
     19 C          -8.0541    0.3072   62.0754 C.ar    1  UNL        -0.0568
     20 C         -10.2599   -0.2834   59.7002 C.ar    1  UNL         0.0652
     21 C         -11.4611    0.0705   60.3488 C.ar    1  UNL        -0.0383
     22 C         -12.5590   -0.8014   60.2736 C.ar    1  UNL        -0.0588
     23 C         -12.4176   -1.9978   59.5537 C.ar    1  UNL        -0.0438
     24 C         -11.1844   -2.2736   58.9387 C.ar    1  UNL         0.0272
     25 N         -10.1288   -1.4375   59.0100 N.ar    1  UNL        -0.2590
     26 C          -1.2457    3.6286   56.8362 C.3     1  UNL         0.0599
     27 C          -1.4556    4.0940   58.2990 C.3     1  UNL        -0.0364
     28 C          -1.4497    2.1001   56.7339 C.3     1  UNL        -0.0364
     29 C           0.1566    4.0165   56.3040 C.3     1  UNL        -0.0364
     30 H          -3.8567    5.0913   57.0386 H       1  UNL         0.0581
     31 H          -3.8673    3.3169   57.0517 H       1  UNL         0.0581
     32 H          -4.2660    3.3711   54.5524 H       1  UNL         0.0455
     33 H          -4.3894    5.1324   54.6351 H       1  UNL         0.0455
     34 H          -6.1941    1.9736   55.5519 H       1  UNL         0.0431
     35 H          -6.4706    2.6933   53.9568 H       1  UNL         0.0431
     36 H          -8.5885    1.8670   54.9470 H       1  UNL         0.0288
     37 H          -8.6178    3.5934   54.6144 H       1  UNL         0.0288
     38 H          -9.6192    3.3770   56.7443 H       1  UNL         0.0402
     39 H          -7.9786    4.5350   58.3011 H       1  UNL         0.0288
     40 H          -8.2559    5.2749   56.7291 H       1  UNL         0.0288
     41 H          -5.8059    3.6435   57.5586 H       1  UNL         0.0431
     42 H          -5.8853    5.3680   57.1805 H       1  UNL         0.0431
     43 H          -9.7642    2.4526   58.9693 H       1  UNL         0.1504
     44 H          -8.1757   -0.0129   59.4544 H       1  UNL         0.0624
     45 H          -9.8131    3.0007   60.9200 H       1  UNL         0.0626
     46 H          -9.3747    3.7817   63.2311 H       1  UNL         0.0623
     47 H          -8.0862    2.3527   64.8123 H       1  UNL         0.0623
     48 H          -7.2439    0.1287   64.0725 H       1  UNL         0.0623
     49 H          -7.6831   -0.6648   61.7625 H       1  UNL         0.0626
     50 H         -11.5426    1.0022   60.9004 H       1  UNL         0.0643
     51 H         -13.4971   -0.5554   60.7627 H       1  UNL         0.0624
     52 H         -13.2443   -2.6974   59.4733 H       1  UNL         0.0639
     53 H         -11.0365   -3.1922   58.3722 H       1  UNL         0.0840
     54 H          -2.4940    3.9309   58.6149 H       1  UNL         0.0260
     55 H          -1.2229    5.1587   58.4216 H       1  UNL         0.0260
     56 H          -0.8029    3.5348   58.9811 H       1  UNL         0.0260
     57 H          -2.4528    1.8161   57.0773 H       1  UNL         0.0260
     58 H          -0.7162    1.5623   57.3479 H       1  UNL         0.0260
     59 H          -1.3384    1.7595   55.6965 H       1  UNL         0.0260
     60 H           0.3562    5.0867   56.4387 H       1  UNL         0.0260
     61 H           0.2476    3.7816   55.2358 H       1  UNL         0.0260
     62 H           0.9402    3.4654   56.8392 H       1  UNL         0.0260
@<TRIPOS>BOND
     1     1     2    1
     2     1    26    1
     3     2     3    1
     4     2    30    1
     5     2    31    1
     6     3     4    1
     7     3    32    1
     8     3    33    1
     9     4     5    1
    10     4     9    1
    11     5     6    1
    12     5    34    1
    13     5    35    1
    14     6     7    1
    15     6    36    1
    16     6    37    1
    17     7     8    1
    18     7    10    1
    19     7    38    1
    20     8     9    1
    21     8    39    1
    22     8    40    1
    23     9    41    1
    24     9    42    1
    25    10    11    2
    26    10    12   am
    27    12    13    1
    28    12    43    1
    29    13    14    1
    30    13    20    1
    31    13    44    1
    32    14    15   ar
    33    14    19   ar
    34    15    16   ar
    35    15    45    1
    36    16    17   ar
    37    16    46    1
    38    17    18   ar
    39    17    47    1
    40    18    19   ar
    41    18    48    1
    42    19    49    1
    43    20    21   ar
    44    20    25   ar
    45    21    22   ar
    46    21    50    1
    47    22    23   ar
    48    22    51    1
    49    23    24   ar
    50    23    52    1
    51    24    25   ar
    52    24    53    1
    53    26    27    1
    54    26    28    1
    55    26    29    1
    56    27    54    1
    57    27    55    1
    58    27    56    1
    59    28    57    1
    60    28    58    1
    61    28    59    1
    62    29    60    1
    63    29    61    1
    64    29    62    1
@<TRIPOS>SUBSTRUCTURE
     1 UNL         1 TEMP              0 ****  ****    0 ROOT


##########                                Name:    ZINC000650955167
##########                DOCK_Rotatable_Bonds:                   9
##########                         Heavy_Atoms:                  26
##########                    Molecular_Weight:             361.484
##########                DOCK_Rotatable_Bonds:                   9
##########                       Formal_Charge:        -7.07805e-07
##########                     HBond_Acceptors:                   6
##########                        HBond_Donors:                   2
##########                         Heavy_Atoms:                  26
##########                          Grid_Score:          -27.538111
##########                     Grid_vdw_energy:          -26.383207
##########                      Grid_es_energy:           -1.154904
##########           Internal_energy_repulsive:           15.207965

@<TRIPOS>MOLECULE
ZINC000650955167
 57 59 1 0 0
SMALL
USER_CHARGES


@<TRIPOS>ATOM
      1 C1        -12.2525   -0.2602   60.8585 C.3     1  ZINC000650955167    0.0200
      2 O2        -12.4040   -0.0347   59.4555 O.3     1  ZINC000650955167   -0.3200
      3 C3        -11.8473   -0.9505   58.6198 C.ar    1  ZINC000650955167    0.1300
      4 C4        -12.1964   -2.2888   58.7241 C.ar    1  ZINC000650955167   -0.2000
      5 C5        -11.6293   -3.2178   57.8729 C.ar    1  ZINC000650955167   -0.0800
      6 C6        -10.7144   -2.8144   56.9183 C.ar    1  ZINC000650955167   -0.1500
      7 C7        -10.3642   -1.4808   56.8127 C.ar    1  ZINC000650955167   -0.0800
      8 C8        -10.9330   -0.5473   57.6571 C.ar    1  ZINC000650955167   -0.1100
      9 C9        -10.5515    0.9060   57.5412 C.3     1  ZINC000650955167   -0.0800
     10 C10        -9.1077    1.0934   58.0116 C.3     1  ZINC000650955167    0.1800
     11 H11        -8.5366    0.1893   57.8005 H       1  ZINC000650955167    0.0900
     12 N12        -9.0939    1.3544   59.4531 N.am    1  ZINC000650955167   -0.7300
     13 C13        -8.4990    0.4816   60.2903 C.2     1  ZINC000650955167    0.7400
     14 O14        -7.9725   -0.5216   59.8490 O.2     1  ZINC000650955167   -0.5800
     15 N15        -8.4877    0.7210   61.6166 N.am    1  ZINC000650955167   -0.6700
     16 C16        -9.0009    1.7727   62.5073 C.3     1  ZINC000650955167    0.1100
     17 C17        -7.8709    1.4209   63.4847 C.3     1  ZINC000650955167    0.0300
     18 N18        -8.2733    1.4254   64.8975 N.3     1  ZINC000650955167   -0.5100
     19 C19        -8.7878    2.7525   65.2976 C.3     1  ZINC000650955167    0.0400
     20 C20        -8.3584    2.9137   66.7772 C.3     1  ZINC000650955167   -0.1600
     21 C21        -6.9610    2.2399   66.7731 C.3     1  ZINC000650955167    0.0800
     22 H22        -6.1983    2.9365   66.4251 H       1  ZINC000650955167    0.0600
     23 O23        -6.6350    1.7447   68.0733 O.3     1  ZINC000650955167   -0.5600
     24 C24        -7.1375    1.0792   65.7716 C.3     1  ZINC000650955167    0.0500
     25 C25        -7.9623    0.0419   62.8107 C.3     1  ZINC000650955167    0.1400
     26 C26        -8.4803    2.2772   57.2728 C.3     1  ZINC000650955167   -0.1100
     27 C27        -9.0409    3.5848   57.8360 C.3     1  ZINC000650955167   -0.1400
     28 C28        -6.9622    2.2497   57.4620 C.3     1  ZINC000650955167   -0.1500
     29 H29       -12.7421    0.5422   61.4104 H       1  ZINC000650955167    0.1000
     30 H30       -12.7077   -1.2143   61.1244 H       1  ZINC000650955167    0.0600
     31 H31       -11.1923   -0.2806   61.1109 H       1  ZINC000650955167    0.0600
     32 H32       -12.9106   -2.6046   59.4701 H       1  ZINC000650955167    0.1300
     33 H33       -11.9007   -4.2600   57.9537 H       1  ZINC000650955167    0.1200
     34 H34       -10.2719   -3.5421   56.2542 H       1  ZINC000650955167    0.1200
     35 H35        -9.6490   -1.1682   56.0663 H       1  ZINC000650955167    0.1300
     36 H36       -10.6390    1.2227   56.5019 H       1  ZINC000650955167    0.0900
     37 H37       -11.2166    1.5068   58.1614 H       1  ZINC000650955167    0.0800
     38 H38        -9.5128    2.1554   59.8050 H       1  ZINC000650955167    0.4000
     39 H39        -8.9162    2.7755   62.0886 H       1  ZINC000650955167    0.0700
     40 H40        -9.9957    1.5618   62.8998 H       1  ZINC000650955167    0.0900
     41 H41        -6.9384    1.9544   63.3006 H       1  ZINC000650955167    0.0900
     42 H42        -8.3385    3.5341   64.6848 H       1  ZINC000650955167    0.0500
     43 H43        -9.8741    2.7798   65.2125 H       1  ZINC000650955167    0.0900
     44 H44        -8.2835    3.9665   67.0496 H       1  ZINC000650955167    0.0800
     45 H45        -9.0435    2.3877   67.4420 H       1  ZINC000650955167    0.0900
     46 H46        -7.2564    1.0848   68.4100 H       1  ZINC000650955167    0.3800
     47 H47        -7.3513    0.1551   66.3088 H       1  ZINC000650955167    0.0900
     48 H48        -6.2326    0.9632   65.1752 H       1  ZINC000650955167    0.0700
     49 H49        -8.6806   -0.6265   63.2854 H       1  ZINC000650955167    0.0900
     50 H50        -6.9920   -0.4275   62.6491 H       1  ZINC000650955167    0.0800
     51 H51        -8.7154    2.2087   56.2107 H       1  ZINC000650955167    0.0700
     52 H52        -8.8057    3.6533   58.8981 H       1  ZINC000650955167    0.0600
     53 H53        -8.5938    4.4282   57.3098 H       1  ZINC000650955167    0.0400
     54 H54       -10.1223    3.6043   57.7013 H       1  ZINC000650955167    0.0500
     55 H55        -6.5629    1.3182   57.0609 H       1  ZINC000650955167    0.0600
     56 H56        -6.5153    3.0932   56.9358 H       1  ZINC000650955167    0.0600
     57 H57        -6.7272    2.3183   58.5242 H       1  ZINC000650955167    0.0600
@<TRIPOS>BOND
     1     1     2    1
     2     1    29    1
     3     1    30    1
     4     1    31    1
     5     2     3    1
     6     3     8   ar
     7     3     4   ar
     8     4     5   ar
     9     4    32    1
    10     5     6   ar
    11     5    33    1
    12     6     7   ar
    13     6    34    1
    14     7     8   ar
    15     7    35    1
    16     8     9    1
    17     9    10    1
    18     9    36    1
    19     9    37    1
    20    10    11    1
    21    10    12    1
    22    10    26    1
    23    12    13   am
    24    12    38    1
    25    13    14    2
    26    13    15   am
    27    15    25    1
    28    15    16    1
    29    16    17    1
    30    16    39    1
    31    16    40    1
    32    17    18    1
    33    17    25    1
    34    17    41    1
    35    18    24    1
    36    18    19    1
    37    19    20    1
    38    19    42    1
    39    19    43    1
    40    20    21    1
    41    20    44    1
    42    20    45    1
    43    21    22    1
    44    21    23    1
    45    21    24    1
    46    23    46    1
    47    24    47    1
    48    24    48    1
    49    25    49    1
    50    25    50    1
    51    26    27    1
    52    26    28    1
    53    26    51    1
    54    27    52    1
    55    27    53    1
    56    27    54    1
    57    28    55    1
    58    28    56    1
    59    28    57    1
@<TRIPOS>SUBSTRUCTURE
     1 ZINC000650955167        1 TEMP              0 ****  ****    0 ROOT


##########                                Name:    ZINC000481050680
##########                DOCK_Rotatable_Bonds:                   7
##########                         Heavy_Atoms:                  29
##########                    Molecular_Weight:              412.46
##########                DOCK_Rotatable_Bonds:                   7
##########                       Formal_Charge:          -0.0199997
##########                     HBond_Acceptors:                   7
##########                        HBond_Donors:                   1
##########                         Heavy_Atoms:                  29
##########                          Grid_Score:          -27.535288
##########                     Grid_vdw_energy:          -26.516531
##########                      Grid_es_energy:           -1.018756
##########           Internal_energy_repulsive:            7.955828

@<TRIPOS>MOLECULE
ZINC000481050680
 47 49 1 0 0
SMALL
USER_CHARGES


@<TRIPOS>ATOM
      1 N1          0.9652    2.6934   50.1357 N.1     1  ZINC000481050680   -0.3900
      2 C2         -0.1143    2.6453   50.4861 C.1     1  ZINC000481050680    0.2500
      3 C3         -1.4751    2.5848   50.9279 C.ar    1  ZINC000481050680    0.0200
      4 C4         -1.8174    3.0292   52.2064 C.ar    1  ZINC000481050680   -0.0800
      5 C5         -3.1302    2.9691   52.6268 C.ar    1  ZINC000481050680   -0.0800
      6 C6         -4.1076    2.4699   51.7854 C.ar    1  ZINC000481050680   -0.1000
      7 C7         -5.5392    2.4075   52.2519 C.3     1  ZINC000481050680   -0.5900
      8 S8         -6.4414    3.8531   51.6299 S.o2    1  ZINC000481050680    2.6000
      9 O9         -5.5508    4.9368   51.4024 O.2     1  ZINC000481050680   -0.9300
     10 O10        -7.3885    3.4638   50.6447 O.2     1  ZINC000481050680   -0.9400
     11 N11        -7.3657    4.3465   52.9124 N.am    1  ZINC000481050680   -1.1100
     12 C12        -8.3561    3.4373   53.4943 C.3     1  ZINC000481050680    0.2100
     13 H13        -8.4223    2.5351   52.8863 H       1  ZINC000481050680    0.1000
     14 C14        -9.7211    4.1274   53.5331 C.3     1  ZINC000481050680   -0.0800
     15 C15       -10.3792    4.0154   52.1821 C.ar    1  ZINC000481050680   -0.0900
     16 C16       -11.1926    2.9347   51.8970 C.ar    1  ZINC000481050680   -0.1200
     17 C17       -11.7962    2.8319   50.6576 C.ar    1  ZINC000481050680   -0.1200
     18 C18       -11.5868    3.8101   49.7036 C.ar    1  ZINC000481050680   -0.1200
     19 C19       -10.7740    4.8912   49.9890 C.ar    1  ZINC000481050680   -0.1200
     20 C20       -10.1739    4.9962   51.2299 C.ar    1  ZINC000481050680   -0.1200
     21 C21        -7.9389    3.0698   54.8948 C.ar    1  ZINC000481050680   -0.1300
     22 C22        -7.3174    4.0060   55.6990 C.ar    1  ZINC000481050680   -0.0700
     23 C23        -6.9344    3.6690   56.9842 C.ar    1  ZINC000481050680   -0.1300
     24 C24        -7.1723    2.3954   57.4658 C.ar    1  ZINC000481050680   -0.0900
     25 C25        -7.7933    1.4572   56.6631 C.ar    1  ZINC000481050680   -0.1500
     26 C26        -8.1832    1.7954   55.3785 C.ar    1  ZINC000481050680    0.1100
     27 F27        -8.7904    0.8791   54.5930 F       1  ZINC000481050680   -0.1400
     28 C28        -3.7761    2.0271   50.5145 C.ar    1  ZINC000481050680    0.1200
     29 F29        -4.7363    1.5411   49.6977 F       1  ZINC000481050680   -0.1200
     30 C30        -2.4660    2.0865   50.0798 C.ar    1  ZINC000481050680   -0.1000
     31 H31        -1.0558    3.4192   52.8655 H       1  ZINC000481050680    0.1500
     32 H32        -3.3952    3.3125   53.6159 H       1  ZINC000481050680    0.1500
     33 H33        -6.0054    1.4978   51.8735 H       1  ZINC000481050680    0.1500
     34 H34        -5.5663    2.4035   53.3415 H       1  ZINC000481050680    0.1500
     35 H35        -7.2512    5.2376   53.2783 H       1  ZINC000481050680    0.4200
     36 H36       -10.3492    3.6481   54.2841 H       1  ZINC000481050680    0.0900
     37 H37        -9.5893    5.1791   53.7872 H       1  ZINC000481050680    0.0900
     38 H38       -11.3563    2.1705   52.6423 H       1  ZINC000481050680    0.1200
     39 H39       -12.4312    1.9873   50.4346 H       1  ZINC000481050680    0.1200
     40 H40       -12.0578    3.7294   48.7351 H       1  ZINC000481050680    0.1200
     41 H41       -10.6101    5.6553   49.2435 H       1  ZINC000481050680    0.1200
     42 H42        -9.5389    5.8409   51.4529 H       1  ZINC000481050680    0.1200
     43 H43        -7.1304    5.0011   55.3234 H       1  ZINC000481050680    0.1300
     44 H44        -6.4488    4.4014   57.6120 H       1  ZINC000481050680    0.1300
     45 H45        -6.8724    2.1332   58.4697 H       1  ZINC000481050680    0.1300
     46 H46        -7.9785    0.4619   57.0395 H       1  ZINC000481050680    0.1400
     47 H47        -2.2079    1.7418   49.0895 H       1  ZINC000481050680    0.1600
@<TRIPOS>BOND
     1     1     2    3
     2     2     3    1
     3     3    30   ar
     4     3     4   ar
     5     4     5   ar
     6     4    31    1
     7     5     6   ar
     8     5    32    1
     9     6     7    1
    10     6    28   ar
    11     7     8    1
    12     7    33    1
    13     7    34    1
    14     8     9    2
    15     8    10    2
    16     8    11   am
    17    11    12    1
    18    11    35    1
    19    12    13    1
    20    12    14    1
    21    12    21    1
    22    14    15    1
    23    14    36    1
    24    14    37    1
    25    15    20   ar
    26    15    16   ar
    27    16    17   ar
    28    16    38    1
    29    17    18   ar
    30    17    39    1
    31    18    19   ar
    32    18    40    1
    33    19    20   ar
    34    19    41    1
    35    20    42    1
    36    21    26   ar
    37    21    22   ar
    38    22    23   ar
    39    22    43    1
    40    23    24   ar
    41    23    44    1
    42    24    25   ar
    43    24    45    1
    44    25    26   ar
    45    25    46    1
    46    26    27    1
    47    28    29    1
    48    28    30   ar
    49    30    47    1
@<TRIPOS>SUBSTRUCTURE
     1 ZINC000481050680        1 TEMP              0 ****  ****    0 ROOT


##########                                Name:    ZINC000277085192
##########                DOCK_Rotatable_Bonds:                   4
##########                         Heavy_Atoms:                  23
##########                    Molecular_Weight:             335.747
##########                DOCK_Rotatable_Bonds:                   4
##########                       Formal_Charge:         5.96046e-08
##########                     HBond_Acceptors:                   8
##########                        HBond_Donors:                   2
##########                         Heavy_Atoms:                  23
##########                          Grid_Score:          -27.523382
##########                     Grid_vdw_energy:          -27.668949
##########                      Grid_es_energy:            0.145567
##########           Internal_energy_repulsive:            6.075026

@<TRIPOS>MOLECULE
ZINC000277085192
 37 39 1 0 0
SMALL
USER_CHARGES


@<TRIPOS>ATOM
      1 O1        -10.2931    1.5841   53.2524 O.2     1  ZINC000277085192   -0.5000
      2 C2        -10.0914    1.0027   54.2976 C.2     1  ZINC000277085192    0.5000
      3 C3        -11.2468    0.4244   55.0733 C.3     1  ZINC000277085192    0.1100
      4 N4        -10.7686   -0.6758   55.9141 N.am    1  ZINC000277085192   -0.6000
      5 C5        -10.7674   -0.5236   57.3702 C.3     1  ZINC000277085192    0.1100
      6 C6        -11.1127   -1.8631   58.0248 C.3     1  ZINC000277085192   -0.1600
      7 C7        -10.2973   -2.9551   57.3790 C.2     1  ZINC000277085192    0.5200
      8 O8         -9.9125   -3.8959   58.0396 O.2     1  ZINC000277085192   -0.5000
      9 N9         -9.9976   -2.8848   56.0690 N.am    1  ZINC000277085192   -0.6700
     10 C10       -10.3427   -1.8120   55.3385 C.2     1  ZINC000277085192    0.7200
     11 O11       -10.2593   -1.8675   54.1273 O.2     1  ZINC000277085192   -0.5500
     12 N12        -8.8334    0.8689   54.7624 N.am    1  ZINC000277085192   -0.6700
     13 C13        -7.7599    1.4061   54.0418 C.ar    1  ZINC000277085192    0.1400
     14 C14        -7.2419    0.7200   52.9590 C.ar    1  ZINC000277085192   -0.0400
     15 C15        -6.1654    1.2578   52.2366 C.ar    1  ZINC000277085192   -0.1700
     16 C16        -5.6271    2.4862   52.6214 C.ar    1  ZINC000277085192   -0.0500
     17 C17        -6.1538    3.1630   53.7055 C.ar    1  ZINC000277085192   -0.0900
     18 C18        -7.2178    2.6333   54.4121 C.ar    1  ZINC000277085192   -0.0300
     19 Cl19       -7.8697    3.4937   55.7717 Cl      1  ZINC000277085192   -0.0500
     20 C20        -4.4888    2.8512   51.6986 C.3     1  ZINC000277085192   -0.0800
     21 C21        -4.3723    1.7056   50.6839 C.3     1  ZINC000277085192   -0.1700
     22 C22        -5.4527    0.7230   51.0651 C.2     1  ZINC000277085192    0.4100
     23 O23        -5.6922   -0.3248   50.5035 O.2     1  ZINC000277085192   -0.4300
     24 H24       -11.6856    1.1986   55.7027 H       1  ZINC000277085192    0.1300
     25 H25       -11.9995    0.0506   54.3791 H       1  ZINC000277085192    0.1200
     26 H26        -9.7799   -0.2017   57.7009 H       1  ZINC000277085192    0.0800
     27 H27       -11.5077    0.2229   57.6580 H       1  ZINC000277085192    0.1000
     28 H28       -10.8831   -1.8183   59.0893 H       1  ZINC000277085192    0.1300
     29 H29       -12.1738   -2.0721   57.8887 H       1  ZINC000277085192    0.1200
     30 H30        -9.5289   -3.6211   55.6460 H       1  ZINC000277085192    0.4300
     31 H31        -8.6718    0.4005   55.5963 H       1  ZINC000277085192    0.4200
     32 H32        -7.6656   -0.2301   52.6691 H       1  ZINC000277085192    0.1500
     33 H33        -5.7340    4.1134   54.0002 H       1  ZINC000277085192    0.1500
     34 H34        -4.7095    3.7863   51.1838 H       1  ZINC000277085192    0.1000
     35 H35        -3.5626    2.9450   52.2656 H       1  ZINC000277085192    0.1000
     36 H36        -4.5398    2.0779   49.6732 H       1  ZINC000277085192    0.1100
     37 H37        -3.3915    1.2355   50.7563 H       1  ZINC000277085192    0.1100
@<TRIPOS>BOND
     1     1     2    2
     2     2     3    1
     3     2    12   am
     4     3     4    1
     5     3    24    1
     6     3    25    1
     7     4    10   am
     8     4     5    1
     9     5     6    1
    10     5    26    1
    11     5    27    1
    12     6     7    1
    13     6    28    1
    14     6    29    1
    15     7     8    2
    16     7     9   am
    17     9    10   am
    18     9    30    1
    19    10    11    2
    20    12    13    1
    21    12    31    1
    22    13    18   ar
    23    13    14   ar
    24    14    15   ar
    25    14    32    1
    26    15    22    1
    27    15    16   ar
    28    16    17   ar
    29    16    20    1
    30    17    18   ar
    31    17    33    1
    32    18    19    1
    33    20    21    1
    34    20    34    1
    35    20    35    1
    36    21    22    1
    37    21    36    1
    38    21    37    1
    39    22    23    2
@<TRIPOS>SUBSTRUCTURE
     1 ZINC000277085192        1 TEMP              0 ****  ****    0 ROOT


##########                                Name:    ZINC000518937710
##########                DOCK_Rotatable_Bonds:                   6
##########                         Heavy_Atoms:                  25
##########                    Molecular_Weight:             397.421
##########                DOCK_Rotatable_Bonds:                   6
##########                       Formal_Charge:          -0.0199997
##########                     HBond_Acceptors:                  11
##########                        HBond_Donors:                   0
##########                         Heavy_Atoms:                  25
##########                          Grid_Score:          -27.501326
##########                     Grid_vdw_energy:          -26.547379
##########                      Grid_es_energy:           -0.953947
##########           Internal_energy_repulsive:           41.273830

@<TRIPOS>MOLECULE
ZINC000518937710
 42 44 1 0 0
SMALL
USER_CHARGES


@<TRIPOS>ATOM
      1 C1         -4.7539    5.4124   54.9125 C.3     1  ZINC000518937710   -0.1900
      2 C2         -5.1512    3.9430   55.0670 C.3     1  ZINC000518937710    0.1700
      3 H3         -4.8501    3.3897   54.1775 H       1  ZINC000518937710    0.1100
      4 C4         -4.4547    3.3528   56.2948 C.3     1  ZINC000518937710   -0.6600
      5 S5         -2.6635    3.6018   56.1520 S.o2    1  ZINC000518937710    2.4000
      6 C6         -2.0168    2.3057   57.2439 C.3     1  ZINC000518937710   -0.6600
      7 O7         -2.2705    3.3079   54.8184 O.2     1  ZINC000518937710   -0.9200
      8 O8         -2.3365    4.8676   56.7087 O.2     1  ZINC000518937710   -0.9300
      9 N9         -6.6032    3.8446   55.2349 N.am    1  ZINC000518937710   -0.9600
     10 C10        -7.1824    3.7787   56.5790 C.3     1  ZINC000518937710    0.0800
     11 C11        -8.3089    2.7705   56.8142 C.3     1  ZINC000518937710   -0.1800
     12 C12        -6.9189    2.5153   57.4006 C.3     1  ZINC000518937710   -0.1800
     13 S13        -7.5899    3.8077   53.9055 S.o2    1  ZINC000518937710    2.6900
     14 O14        -8.9033    3.5582   54.3872 O.2     1  ZINC000518937710   -0.9400
     15 O15        -7.2520    4.9449   53.1233 O.2     1  ZINC000518937710   -0.9400
     16 C16        -7.1320    2.3964   52.9551 C.ar    1  ZINC000518937710   -0.6400
     17 C17        -6.0582    2.4666   52.0873 C.ar    1  ZINC000518937710   -0.0300
     18 C18        -5.6960    1.3612   51.3401 C.ar    1  ZINC000518937710   -0.1300
     19 C19        -6.4058    0.1809   51.4580 C.ar    1  ZINC000518937710   -0.0300
     20 C20        -7.4830    0.1032   52.3257 C.ar    1  ZINC000518937710    0.0200
     21 C21        -7.8447    1.2152   53.0822 C.ar    1  ZINC000518937710    0.1900
     22 O22        -8.9248    0.8879   53.8501 O.3     1  ZINC000518937710   -0.2800
     23 C23        -9.4715   -0.3045   53.2562 C.3     1  ZINC000518937710    0.5700
     24 F24        -9.9998   -1.1462   54.2408 F       1  ZINC000518937710   -0.1200
     25 F25       -10.4514    0.0212   52.3123 F       1  ZINC000518937710   -0.1400
     26 O26        -8.3337   -0.9221   52.6229 O.3     1  ZINC000518937710   -0.2900
     27 H27        -5.0875    5.9727   55.7859 H       1  ZINC000518937710    0.1000
     28 H28        -3.6703    5.4884   54.8241 H       1  ZINC000518937710    0.0800
     29 H29        -5.2212    5.8228   54.0173 H       1  ZINC000518937710    0.0700
     30 H30        -4.8200    3.8496   57.1936 H       1  ZINC000518937710    0.1600
     31 H31        -4.6694    2.2860   56.3566 H       1  ZINC000518937710    0.1400
     32 H32        -2.2690    1.3271   56.8355 H       1  ZINC000518937710    0.1300
     33 H33        -0.9334    2.4002   57.3180 H       1  ZINC000518937710    0.1300
     34 H34        -2.4592    2.4110   58.2345 H       1  ZINC000518937710    0.1300
     35 H35        -7.2344    4.7262   57.1154 H       1  ZINC000518937710    0.1500
     36 H36        -9.1024    3.0546   57.5054 H       1  ZINC000518937710    0.1100
     37 H37        -8.6190    2.1562   55.9689 H       1  ZINC000518937710    0.1000
     38 H38        -6.3147    1.7330   56.9411 H       1  ZINC000518937710    0.1000
     39 H39        -6.7980    2.6314   58.4777 H       1  ZINC000518937710    0.1000
     40 H40        -5.5012    3.3870   51.9926 H       1  ZINC000518937710    0.1600
     41 H41        -4.8570    1.4201   50.6627 H       1  ZINC000518937710    0.1600
     42 H42        -6.1205   -0.6811   50.8730 H       1  ZINC000518937710    0.1500
@<TRIPOS>BOND
     1     1     2    1
     2     1    27    1
     3     1    28    1
     4     1    29    1
     5     2     3    1
     6     2     4    1
     7     2     9    1
     8     4     5    1
     9     4    30    1
    10     4    31    1
    11     5     6    1
    12     5     7    2
    13     5     8    2
    14     6    32    1
    15     6    33    1
    16     6    34    1
    17     9    10    1
    18     9    13   am
    19    10    12    1
    20    10    11    1
    21    10    35    1
    22    11    12    1
    23    11    36    1
    24    11    37    1
    25    12    38    1
    26    12    39    1
    27    13    14    2
    28    13    15    2
    29    13    16    1
    30    16    21   ar
    31    16    17   ar
    32    17    18   ar
    33    17    40    1
    34    18    19   ar
    35    18    41    1
    36    19    20   ar
    37    19    42    1
    38    20    26    1
    39    20    21   ar
    40    21    22    1
    41    22    23    1
    42    23    24    1
    43    23    25    1
    44    23    26    1
@<TRIPOS>SUBSTRUCTURE
     1 ZINC000518937710        1 TEMP              0 ****  ****    0 ROOT


##########                                Name:    ZINC001310073555
##########                DOCK_Rotatable_Bonds:                  12
##########                         Heavy_Atoms:                  27
##########                    Molecular_Weight:             380.484
##########                DOCK_Rotatable_Bonds:                  12
##########                       Formal_Charge:          0.00999888
##########                     HBond_Acceptors:                   7
##########                        HBond_Donors:                   2
##########                         Heavy_Atoms:                  27
##########                          Grid_Score:          -27.474579
##########                     Grid_vdw_energy:          -27.451977
##########                      Grid_es_energy:           -0.022602
##########           Internal_energy_repulsive:           56.558762

@<TRIPOS>MOLECULE
ZINC001310073555
 59 59 1 0 0
SMALL
USER_CHARGES


@<TRIPOS>ATOM
      1 C1          3.1698    3.1230   59.1968 C.3     1  ZINC001310073555   -0.1600
      2 C2          1.9162    2.4543   58.6291 C.3     1  ZINC001310073555   -0.1100
      3 C3          0.7443    2.6700   59.5887 C.3     1  ZINC001310073555   -0.0600
      4 C4          0.7724    4.1070   60.1132 C.3     1  ZINC001310073555   -0.1100
      5 C5         -0.4989    4.3807   60.9193 C.3     1  ZINC001310073555   -0.1600
      6 C6         -0.5723    2.4226   58.8496 C.3     1  ZINC001310073555    0.1600
      7 N7         -0.8311    3.5321   57.9285 N.am    1  ZINC001310073555   -0.7400
      8 C8         -1.4065    3.2951   56.7330 C.2     1  ZINC001310073555    0.7100
      9 O9         -1.7121    2.1606   56.4194 O.2     1  ZINC001310073555   -0.5700
     10 N10        -1.6432    4.3155   55.8849 N.am    1  ZINC001310073555   -0.6700
     11 C11        -2.2425    4.0688   54.6397 C.ar    1  ZINC001310073555    0.1000
     12 C12        -3.5334    3.5669   54.5783 C.ar    1  ZINC001310073555   -0.0400
     13 C13        -4.1236    3.3239   53.3522 C.ar    1  ZINC001310073555   -0.2200
     14 C14        -3.4267    3.5817   52.1813 C.ar    1  ZINC001310073555    0.1500
     15 O15        -4.0101    3.3417   50.9769 O.3     1  ZINC001310073555   -0.3200
     16 C16        -3.6302    2.1421   50.2996 C.3     1  ZINC001310073555    0.0300
     17 C17        -2.1352    4.0848   52.2378 C.ar    1  ZINC001310073555   -0.2300
     18 C18        -1.5429    4.3334   53.4645 C.ar    1  ZINC001310073555    0.1400
     19 O19        -0.2769    4.8265   53.5220 O.3     1  ZINC001310073555   -0.3100
     20 C20         0.7910    3.8776   53.4893 C.3     1  ZINC001310073555    0.0300
     21 C21         0.8590    1.7108   60.7453 C.2     1  ZINC001310073555    0.4800
     22 O22         1.4900    2.0217   61.7277 O.2     1  ZINC001310073555   -0.5000
     23 O23         0.2601    0.5110   60.6843 O.3     1  ZINC001310073555   -0.3400
     24 C24         0.5530   -0.4271   61.7531 C.3     1  ZINC001310073555    0.1200
     25 C25         0.0512    0.1412   63.0821 C.3     1  ZINC001310073555   -0.1800
     26 C26        -0.1477   -1.7575   61.4702 C.3     1  ZINC001310073555   -0.1400
     27 C27         2.0640   -0.6534   61.8332 C.3     1  ZINC001310073555   -0.1800
     28 H28         4.0048    2.9693   58.5130 H       1  ZINC001310073555    0.0600
     29 H29         2.9896    4.1914   59.3156 H       1  ZINC001310073555    0.0500
     30 H30         3.4083    2.6847   60.1658 H       1  ZINC001310073555    0.0600
     31 H31         1.6778    2.8925   57.6600 H       1  ZINC001310073555    0.0800
     32 H32         2.0966    1.3859   58.5103 H       1  ZINC001310073555    0.0800
     33 H33         1.6446    4.2434   60.7527 H       1  ZINC001310073555    0.0800
     34 H34         0.8261    4.7994   59.2731 H       1  ZINC001310073555    0.0800
     35 H35        -1.3709    4.2444   60.2798 H       1  ZINC001310073555    0.0600
     36 H36        -0.5525    3.6883   61.7594 H       1  ZINC001310073555    0.0500
     37 H37        -0.4788    5.4044   61.2930 H       1  ZINC001310073555    0.0600
     38 H38        -0.5036    1.4917   58.2868 H       1  ZINC001310073555    0.0800
     39 H39        -1.3862    2.3519   59.5710 H       1  ZINC001310073555    0.0800
     40 H40        -0.5885    4.4371   58.1791 H       1  ZINC001310073555    0.4000
     41 H41        -1.3993    5.2205   56.1349 H       1  ZINC001310073555    0.4100
     42 H42        -4.0780    3.3653   55.4889 H       1  ZINC001310073555    0.1500
     43 H43        -5.1290    2.9322   53.3060 H       1  ZINC001310073555    0.1300
     44 H44        -2.5573    2.1575   50.1075 H       1  ZINC001310073555    0.0600
     45 H45        -3.8757    1.2808   50.9208 H       1  ZINC001310073555    0.0600
     46 H46        -4.1677    2.0731   49.3539 H       1  ZINC001310073555    0.1000
     47 H47        -1.5931    4.2853   51.3255 H       1  ZINC001310073555    0.1400
     48 H48         1.7450    4.4022   53.5417 H       1  ZINC001310073555    0.1000
     49 H49         0.7016    3.2005   54.3388 H       1  ZINC001310073555    0.0600
     50 H50         0.7411    3.3061   52.5624 H       1  ZINC001310073555    0.0600
     51 H51        -1.0253    0.3024   63.0251 H       1  ZINC001310073555    0.0600
     52 H52         0.2711   -0.5631   63.8845 H       1  ZINC001310073555    0.0700
     53 H53         0.5505    1.0890   63.2836 H       1  ZINC001310073555    0.0800
     54 H54         0.2098   -2.1622   60.5234 H       1  ZINC001310073555    0.0700
     55 H55         0.0721   -2.4617   62.2726 H       1  ZINC001310073555    0.0800
     56 H56        -1.2242   -1.5962   61.4132 H       1  ZINC001310073555    0.0700
     57 H57         2.5632    0.2944   62.0347 H       1  ZINC001310073555    0.0800
     58 H58         2.2838   -1.3577   62.6355 H       1  ZINC001310073555    0.0700
     59 H59         2.4215   -1.0583   60.8864 H       1  ZINC001310073555    0.0600
@<TRIPOS>BOND
     1     1     2    1
     2     1    28    1
     3     1    29    1
     4     1    30    1
     5     2     3    1
     6     2    31    1
     7     2    32    1
     8     3     4    1
     9     3     6    1
    10     3    21    1
    11     4     5    1
    12     4    33    1
    13     4    34    1
    14     5    35    1
    15     5    36    1
    16     5    37    1
    17     6     7    1
    18     6    38    1
    19     6    39    1
    20     7     8   am
    21     7    40    1
    22     8     9    2
    23     8    10   am
    24    10    11    1
    25    10    41    1
    26    11    18   ar
    27    11    12   ar
    28    12    13   ar
    29    12    42    1
    30    13    14   ar
    31    13    43    1
    32    14    15    1
    33    14    17   ar
    34    15    16    1
    35    16    44    1
    36    16    45    1
    37    16    46    1
    38    17    18   ar
    39    17    47    1
    40    18    19    1
    41    19    20    1
    42    20    48    1
    43    20    49    1
    44    20    50    1
    45    21    22    2
    46    21    23    1
    47    23    24    1
    48    24    25    1
    49    24    26    1
    50    24    27    1
    51    25    51    1
    52    25    52    1
    53    25    53    1
    54    26    54    1
    55    26    55    1
    56    26    56    1
    57    27    57    1
    58    27    58    1
    59    27    59    1
@<TRIPOS>SUBSTRUCTURE
     1 ZINC001310073555        1 TEMP              0 ****  ****    0 ROOT


##########                                Name:    ZINC000517001504
##########                DOCK_Rotatable_Bonds:                   5
##########                         Heavy_Atoms:                  29
##########                    Molecular_Weight:             403.401
##########                DOCK_Rotatable_Bonds:                   5
##########                       Formal_Charge:          -0.0200002
##########                     HBond_Acceptors:                   7
##########                        HBond_Donors:                   0
##########                         Heavy_Atoms:                  29
##########                          Grid_Score:          -27.452555
##########                     Grid_vdw_energy:          -26.774168
##########                      Grid_es_energy:           -0.678387
##########           Internal_energy_repulsive:           31.868305

@<TRIPOS>MOLECULE
ZINC000517001504
 49 52 1 0 0
SMALL
USER_CHARGES


@<TRIPOS>ATOM
      1 O1         -7.0202    0.8428   51.9858 O.2     1  ZINC000517001504   -0.5200
      2 C2         -7.1650    1.9967   52.3300 C.2     1  ZINC000517001504    0.5400
      3 N3         -6.1006    2.8216   52.3872 N.am    1  ZINC000517001504   -0.6100
      4 C4         -6.2525    4.2270   52.7961 C.3     1  ZINC000517001504    0.0600
      5 C5         -5.5626    5.1116   51.7516 C.3     1  ZINC000517001504    0.0500
      6 O6         -4.2244    4.6494   51.5529 O.3     1  ZINC000517001504   -0.3700
      7 C7         -4.1355    3.3197   51.0351 C.3     1  ZINC000517001504    0.1200
      8 H8         -4.6775    3.2595   50.0914 H       1  ZINC000517001504    0.0800
      9 C9         -2.6888    2.9637   50.8084 C.ar    1  ZINC000517001504   -0.0600
     10 C10        -2.3229    2.2356   49.6917 C.ar    1  ZINC000517001504   -0.0900
     11 C11        -0.9959    1.9090   49.4837 C.ar    1  ZINC000517001504   -0.0700
     12 C12        -0.0347    2.3110   50.3922 C.ar    1  ZINC000517001504   -0.1800
     13 C13         1.4120    1.9545   50.1657 C.3     1  ZINC000517001504    0.5100
     14 F14         2.2258    2.9991   50.6174 F       1  ZINC000517001504   -0.1800
     15 F15         1.7200    0.7855   50.8697 F       1  ZINC000517001504   -0.1800
     16 F16         1.6331    1.7484   48.7997 F       1  ZINC000517001504   -0.1800
     17 C17        -0.4003    3.0402   51.5082 C.ar    1  ZINC000517001504   -0.0700
     18 C18        -1.7268    3.3701   51.7141 C.ar    1  ZINC000517001504   -0.1000
     19 C19        -4.7514    2.3417   52.0485 C.3     1  ZINC000517001504    0.0900
     20 C20        -8.5359    2.5099   52.6878 C.3     1  ZINC000517001504   -0.0600
     21 C21        -9.0776    3.4882   51.6776 C.ar    1  ZINC000517001504   -0.0700
     22 C22       -10.2759    4.1350   51.9155 C.ar    1  ZINC000517001504   -0.1200
     23 C23       -10.7727    5.0324   50.9888 C.ar    1  ZINC000517001504   -0.1100
     24 C24       -10.0711    5.2833   49.8245 C.ar    1  ZINC000517001504   -0.1100
     25 C25        -8.8724    4.6371   49.5871 C.ar    1  ZINC000517001504   -0.1100
     26 C26        -8.3734    3.7430   50.5157 C.ar    1  ZINC000517001504   -0.1000
     27 C27        -9.5302    1.4000   53.0700 C.3     1  ZINC000517001504   -0.1600
     28 C28        -9.0461    1.5759   54.4957 C.2     1  ZINC000517001504    0.3600
     29 O29        -8.9955    0.8841   55.4840 O.2     1  ZINC000517001504   -0.4100
     30 C30        -8.6527    2.9966   54.1426 C.3     1  ZINC000517001504   -0.1900
     31 H31        -7.3111    4.4810   52.8509 H       1  ZINC000517001504    0.1000
     32 H32        -5.7873    4.3782   53.7702 H       1  ZINC000517001504    0.0800
     33 H33        -6.1098    5.0579   50.8104 H       1  ZINC000517001504    0.0600
     34 H34        -5.5430    6.1430   52.1037 H       1  ZINC000517001504    0.1100
     35 H35        -3.0740    1.9216   48.9820 H       1  ZINC000517001504    0.1400
     36 H36        -0.7102    1.3396   48.6116 H       1  ZINC000517001504    0.1400
     37 H37         0.3508    3.3545   52.2177 H       1  ZINC000517001504    0.1400
     38 H38        -2.0124    3.9399   52.5861 H       1  ZINC000517001504    0.1400
     39 H39        -4.1331    2.3046   52.9453 H       1  ZINC000517001504    0.0800
     40 H40        -4.8172    1.3478   51.6060 H       1  ZINC000517001504    0.1100
     41 H41       -10.8241    3.9390   52.8251 H       1  ZINC000517001504    0.1300
     42 H42       -11.7093    5.5373   51.1743 H       1  ZINC000517001504    0.1300
     43 H43       -10.4596    5.9839   49.1002 H       1  ZINC000517001504    0.1300
     44 H44        -8.3242    4.8329   48.6773 H       1  ZINC000517001504    0.1300
     45 H45        -7.4368    3.2382   50.3302 H       1  ZINC000517001504    0.1200
     46 H46       -10.5740    1.6784   52.9248 H       1  ZINC000517001504    0.1300
     47 H47        -9.2863    0.4276   52.6420 H       1  ZINC000517001504    0.1100
     48 H48        -7.7029    3.3084   54.5772 H       1  ZINC000517001504    0.1000
     49 H49        -9.4502    3.7230   54.2983 H       1  ZINC000517001504    0.1400
@<TRIPOS>BOND
     1     1     2    2
     2     2     3   am
     3     2    20    1
     4     3    19    1
     5     3     4    1
     6     4     5    1
     7     4    31    1
     8     4    32    1
     9     5     6    1
    10     5    33    1
    11     5    34    1
    12     6     7    1
    13     7     8    1
    14     7     9    1
    15     7    19    1
    16     9    18   ar
    17     9    10   ar
    18    10    11   ar
    19    10    35    1
    20    11    12   ar
    21    11    36    1
    22    12    13    1
    23    12    17   ar
    24    13    14    1
    25    13    15    1
    26    13    16    1
    27    17    18   ar
    28    17    37    1
    29    18    38    1
    30    19    39    1
    31    19    40    1
    32    20    30    1
    33    20    21    1
    34    20    27    1
    35    21    26   ar
    36    21    22   ar
    37    22    23   ar
    38    22    41    1
    39    23    24   ar
    40    23    42    1
    41    24    25   ar
    42    24    43    1
    43    25    26   ar
    44    25    44    1
    45    26    45    1
    46    27    28    1
    47    27    46    1
    48    27    47    1
    49    28    29    2
    50    28    30    1
    51    30    48    1
    52    30    49    1
@<TRIPOS>SUBSTRUCTURE
     1 ZINC000517001504        1 TEMP              0 ****  ****    0 ROOT


##########                                Name:    ZINC000281092425
##########                DOCK_Rotatable_Bonds:                   8
##########                         Heavy_Atoms:                  23
##########                    Molecular_Weight:             332.304
##########                DOCK_Rotatable_Bonds:                   8
##########                       Formal_Charge:         2.98023e-08
##########                     HBond_Acceptors:                   9
##########                        HBond_Donors:                   2
##########                         Heavy_Atoms:                  23
##########                          Grid_Score:          -27.442482
##########                     Grid_vdw_energy:          -25.251701
##########                      Grid_es_energy:           -2.190780
##########           Internal_energy_repulsive:           21.126402

@<TRIPOS>MOLECULE
ZINC000281092425
 41 42 1 0 0
SMALL
USER_CHARGES


@<TRIPOS>ATOM
      1 O1          1.4309    2.0391   50.0648 O.2     1  ZINC000281092425   -0.1800
      2 N2          0.8821    2.6631   50.9552 N.pl3   1  ZINC000281092425    0.0400
      3 O3          1.5476    3.1947   51.8259 O.2     1  ZINC000281092425   -0.1500
      4 C4         -0.5931    2.7805   50.9759 C.ar    1  ZINC000281092425   -0.1200
      5 C5         -1.3472    2.1771   49.9878 C.ar    1  ZINC000281092425    0.0200
      6 C6         -2.7245    2.2844   50.0035 C.ar    1  ZINC000281092425   -0.2200
      7 C7         -3.3547    2.9995   51.0142 C.ar    1  ZINC000281092425    0.3000
      8 N8         -4.7471    3.1079   51.0307 N.pl3   1  ZINC000281092425   -0.7200
      9 C9         -5.4847    2.8813   52.2761 C.3     1  ZINC000281092425    0.1200
     10 C10        -6.7893    2.1431   51.9691 C.3     1  ZINC000281092425   -0.0900
     11 H11        -7.1145    2.3856   50.9574 H       1  ZINC000281092425    0.0900
     12 C12        -6.5609    0.6347   52.0837 C.3     1  ZINC000281092425    0.0800
     13 O13        -6.1722    0.1137   50.8111 O.3     1  ZINC000281092425   -0.5700
     14 C14        -7.8658    2.5733   52.9676 C.3     1  ZINC000281092425   -0.1100
     15 H15        -7.9136    3.6600   53.0396 H       1  ZINC000281092425    0.0900
     16 C16        -9.2486    1.9839   52.5777 C.3     1  ZINC000281092425   -0.1600
     17 C17        -9.9340    1.8993   53.9648 C.3     1  ZINC000281092425    0.0500
     18 O18        -8.8871    1.5365   54.8789 O.3     1  ZINC000281092425   -0.3900
     19 C19        -7.6137    1.9414   54.3534 C.3     1  ZINC000281092425    0.0700
     20 C20        -2.5985    3.6062   52.0080 C.ar    1  ZINC000281092425   -0.2800
     21 C21        -1.2176    3.4920   51.9912 C.ar    1  ZINC000281092425    0.2300
     22 O22        -0.4745    4.0842   52.9628 O.3     1  ZINC000281092425   -0.2900
     23 C23        -0.7158    3.6679   54.3084 C.3     1  ZINC000281092425    0.4100
     24 F24         0.4979    3.3289   54.9163 F       1  ZINC000281092425   -0.1900
     25 F25        -1.3176    4.7121   55.0188 F       1  ZINC000281092425   -0.1900
     26 H26        -0.8589    1.6207   49.2014 H       1  ZINC000281092425    0.1600
     27 H27        -3.3116    1.8124   49.2297 H       1  ZINC000281092425    0.1500
     28 H28        -5.2258    3.3332   50.2178 H       1  ZINC000281092425    0.4100
     29 H29        -4.8780    2.2803   52.9535 H       1  ZINC000281092425    0.0800
     30 H30        -5.7108    3.8394   52.7439 H       1  ZINC000281092425    0.0800
     31 H31        -5.7731    0.4407   52.8116 H       1  ZINC000281092425    0.0500
     32 H32        -7.4824    0.1513   52.4081 H       1  ZINC000281092425    0.0500
     33 H33        -5.3580    0.4998   50.4601 H       1  ZINC000281092425    0.3800
     34 H34        -9.7894    2.6573   51.9126 H       1  ZINC000281092425    0.0800
     35 H35        -9.1425    0.9952   52.1311 H       1  ZINC000281092425    0.0800
     36 H36       -10.3561    2.8665   54.2377 H       1  ZINC000281092425    0.0600
     37 H37       -10.7111    1.1352   53.9568 H       1  ZINC000281092425    0.0900
     38 H38        -6.9639    1.0726   54.2481 H       1  ZINC000281092425    0.0800
     39 H39        -7.1532    2.6703   55.0204 H       1  ZINC000281092425    0.0700
     40 H40        -3.0859    4.1627   52.7950 H       1  ZINC000281092425    0.1500
     41 H41        -1.3764    2.8009   54.3076 H       1  ZINC000281092425    0.1900
@<TRIPOS>BOND
     1     1     2    2
     2     2     3    2
     3     2     4    1
     4     4    21   ar
     5     4     5   ar
     6     5     6   ar
     7     5    26    1
     8     6     7   ar
     9     6    27    1
    10     7     8    1
    11     7    20   ar
    12     8     9    1
    13     8    28    1
    14     9    10    1
    15     9    29    1
    16     9    30    1
    17    10    11    1
    18    10    12    1
    19    10    14    1
    20    12    13    1
    21    12    31    1
    22    12    32    1
    23    13    33    1
    24    14    15    1
    25    14    19    1
    26    14    16    1
    27    16    17    1
    28    16    34    1
    29    16    35    1
    30    17    18    1
    31    17    36    1
    32    17    37    1
    33    18    19    1
    34    19    38    1
    35    19    39    1
    36    20    21   ar
    37    20    40    1
    38    21    22    1
    39    22    23    1
    40    23    24    1
    41    23    25    1
    42    23    41    1
@<TRIPOS>SUBSTRUCTURE
     1 ZINC000281092425        1 TEMP              0 ****  ****    0 ROOT


##########                                Name:    ZINC000518242403
##########                DOCK_Rotatable_Bonds:                   6
##########                         Heavy_Atoms:                  27
##########                    Molecular_Weight:             370.405
##########                DOCK_Rotatable_Bonds:                   6
##########                       Formal_Charge:          -0.0200004
##########                     HBond_Acceptors:                   7
##########                        HBond_Donors:                   1
##########                         Heavy_Atoms:                  27
##########                          Grid_Score:          -27.432455
##########                     Grid_vdw_energy:          -27.402699
##########                      Grid_es_energy:           -0.029757
##########           Internal_energy_repulsive:           11.958055

@<TRIPOS>MOLECULE
ZINC000518242403
 49 52 1 0 0
SMALL
USER_CHARGES


@<TRIPOS>ATOM
      1 C1         -8.7337    4.2983   49.7104 C.3     1  ZINC000518242403   -0.1800
      2 C2         -8.2440    4.6900   51.1060 C.3     1  ZINC000518242403    0.1000
      3 N3         -7.3638    3.6412   51.6268 N.am    1  ZINC000518242403   -0.6200
      4 C4         -7.9191    2.5547   52.4378 C.3     1  ZINC000518242403    0.1500
      5 C5         -7.6989    2.8613   53.9205 C.3     1  ZINC000518242403    0.0300
      6 H6         -6.6313    2.8675   54.1400 H       1  ZINC000518242403    0.0900
      7 C7         -8.3051    4.2294   54.2616 C.3     1  ZINC000518242403    0.0300
      8 O8         -8.0942    4.4781   55.6557 O.3     1  ZINC000518242403   -0.3000
      9 C9         -8.3809    3.4574   56.5092 C.ar    1  ZINC000518242403    0.0500
     10 C10        -8.5505    3.7261   57.8589 C.ar    1  ZINC000518242403   -0.1100
     11 C11        -8.8387    2.6993   58.7385 C.ar    1  ZINC000518242403   -0.1200
     12 C12        -8.9588    1.4026   58.2754 C.ar    1  ZINC000518242403   -0.1200
     13 C13        -8.7925    1.1282   56.9307 C.ar    1  ZINC000518242403   -0.1100
     14 C14        -8.5043    2.1536   56.0429 C.ar    1  ZINC000518242403    0.0500
     15 O15        -8.3506    1.8689   54.7207 O.3     1  ZINC000518242403   -0.3000
     16 C16        -6.0432    3.6756   51.3599 C.2     1  ZINC000518242403    0.7100
     17 O17        -5.5821    4.5782   50.6879 O.2     1  ZINC000518242403   -0.5700
     18 N18        -5.2337    2.7098   51.8376 N.am    1  ZINC000518242403   -0.6800
     19 C19        -3.8605    2.7457   51.5600 C.ar    1  ZINC000518242403    0.1700
     20 C20        -3.3716    2.1616   50.3997 C.ar    1  ZINC000518242403   -0.1000
     21 C21        -2.0144    2.1977   50.1256 C.ar    1  ZINC000518242403    0.0500
     22 C22        -1.1428    2.8205   51.0157 C.ar    1  ZINC000518242403    0.0200
     23 C23        -1.6349    3.4017   52.1731 C.ar    1  ZINC000518242403   -0.0800
     24 C24        -2.9898    3.3704   52.4427 C.ar    1  ZINC000518242403   -0.1000
     25 C25        -3.5215    4.0037   53.7027 C.3     1  ZINC000518242403   -0.1100
     26 O26         0.1274    2.7218   50.5231 O.3     1  ZINC000518242403   -0.3100
     27 C27         0.0747    1.6798   49.5307 C.3     1  ZINC000518242403    0.2100
     28 O28        -1.2911    1.7093   49.0761 O.3     1  ZINC000518242403   -0.3100
     29 H29        -7.8782    4.1784   49.0455 H       1  ZINC000518242403    0.0600
     30 H30        -9.2831    3.3587   49.7686 H       1  ZINC000518242403    0.0600
     31 H31        -9.3885    5.0787   49.3228 H       1  ZINC000518242403    0.0700
     32 H32        -7.6946    5.6296   51.0476 H       1  ZINC000518242403    0.1000
     33 H33        -9.0994    4.8099   51.7708 H       1  ZINC000518242403    0.0700
     34 H34        -8.9871    2.4632   52.2404 H       1  ZINC000518242403    0.1100
     35 H35        -7.4208    1.6195   52.1823 H       1  ZINC000518242403    0.0900
     36 H36        -7.8170    5.0051   53.6717 H       1  ZINC000518242403    0.1300
     37 H37        -9.3738    4.2215   54.0472 H       1  ZINC000518242403    0.0800
     38 H38        -8.4570    4.7384   58.2234 H       1  ZINC000518242403    0.1300
     39 H39        -8.9706    2.9107   59.7894 H       1  ZINC000518242403    0.1300
     40 H40        -9.1828    0.6025   58.9652 H       1  ZINC000518242403    0.1300
     41 H41        -8.8868    0.1142   56.5714 H       1  ZINC000518242403    0.1300
     42 H42        -5.6015    1.9899   52.3735 H       1  ZINC000518242403    0.4100
     43 H43        -4.0491    1.6789   49.7111 H       1  ZINC000518242403    0.1500
     44 H44        -0.9591    3.8847   52.8633 H       1  ZINC000518242403    0.1400
     45 H45        -3.7694    5.0471   53.5082 H       1  ZINC000518242403    0.0800
     46 H46        -4.4161    3.4720   54.0270 H       1  ZINC000518242403    0.0700
     47 H47        -2.7635    3.9497   54.4841 H       1  ZINC000518242403    0.0800
     48 H48         0.7567    1.8985   48.7091 H       1  ZINC000518242403    0.1300
     49 H49         0.3090    0.7134   49.9773 H       1  ZINC000518242403    0.0900
@<TRIPOS>BOND
     1     1     2    1
     2     1    29    1
     3     1    30    1
     4     1    31    1
     5     2     3    1
     6     2    32    1
     7     2    33    1
     8     3     4    1
     9     3    16   am
    10     4     5    1
    11     4    34    1
    12     4    35    1
    13     5     6    1
    14     5    15    1
    15     5     7    1
    16     7     8    1
    17     7    36    1
    18     7    37    1
    19     8     9    1
    20     9    14   ar
    21     9    10   ar
    22    10    11   ar
    23    10    38    1
    24    11    12   ar
    25    11    39    1
    26    12    13   ar
    27    12    40    1
    28    13    14   ar
    29    13    41    1
    30    14    15    1
    31    16    17    2
    32    16    18   am
    33    18    19    1
    34    18    42    1
    35    19    24   ar
    36    19    20   ar
    37    20    21   ar
    38    20    43    1
    39    21    28    1
    40    21    22   ar
    41    22    23   ar
    42    22    26    1
    43    23    24   ar
    44    23    44    1
    45    24    25    1
    46    25    45    1
    47    25    46    1
    48    25    47    1
    49    26    27    1
    50    27    28    1
    51    27    48    1
    52    27    49    1
@<TRIPOS>SUBSTRUCTURE
     1 ZINC000518242403        1 TEMP              0 ****  ****    0 ROOT


##########                                Name:    ZINC000893400114
##########                DOCK_Rotatable_Bonds:                   6
##########                         Heavy_Atoms:                  27
##########                    Molecular_Weight:             381.472
##########                DOCK_Rotatable_Bonds:                   6
##########                       Formal_Charge:           0.0300001
##########                     HBond_Acceptors:                   8
##########                        HBond_Donors:                   1
##########                         Heavy_Atoms:                  27
##########                          Grid_Score:          -27.430286
##########                     Grid_vdw_energy:          -27.807327
##########                      Grid_es_energy:            0.377040
##########           Internal_energy_repulsive:           79.183319

@<TRIPOS>MOLECULE
ZINC000893400114
 58 61 1 0 0
SMALL
USER_CHARGES


@<TRIPOS>ATOM
      1 O1         -5.3435    3.6463   54.8946 O.2     1  ZINC000893400114   -0.5600
      2 C2         -4.3712    3.9269   54.2205 C.2     1  ZINC000893400114    0.7100
      3 N3         -3.2366    4.3451   54.8156 N.am    1  ZINC000893400114   -0.7300
      4 C4         -3.1765    4.4671   56.2744 C.3     1  ZINC000893400114    0.1400
      5 H5         -4.1785    4.5796   56.6884 H       1  ZINC000893400114    0.1200
      6 C6         -2.2855    5.6636   56.6811 C.3     1  ZINC000893400114   -0.1400
      7 C7         -0.9158    4.9799   56.8890 C.3     1  ZINC000893400114    0.1000
      8 N8         -1.2216    3.5826   57.2177 N.am    1  ZINC000893400114   -0.6200
      9 C9         -0.2738    2.6526   57.8368 C.3     1  ZINC000893400114    0.1600
     10 C10         1.1525    3.0177   57.4142 C.3     1  ZINC000893400114   -0.1700
     11 C11         2.1406    2.0909   58.1273 C.3     1  ZINC000893400114    0.0700
     12 O12         1.9648    2.2064   59.5407 O.3     1  ZINC000893400114   -0.3800
     13 C13         0.6640    1.8325   59.9995 C.3     1  ZINC000893400114    0.0700
     14 C14        -0.3834    2.7489   59.3616 C.3     1  ZINC000893400114   -0.1700
     15 C15        -2.4861    3.2642   56.8783 C.2     1  ZINC000893400114    0.5100
     16 O16        -2.9935    2.1737   57.0343 O.2     1  ZINC000893400114   -0.4900
     17 N17        -4.4265    3.8147   52.8785 N.am    1  ZINC000893400114   -0.6300
     18 C18        -3.2609    4.1430   52.0423 C.3     1  ZINC000893400114    0.0800
     19 C19        -3.0087    2.9733   51.0840 C.3     1  ZINC000893400114    0.0500
     20 O20        -4.2199    2.6629   50.3911 O.3     1  ZINC000893400114   -0.3800
     21 C21        -5.2850    2.2284   51.2400 C.3     1  ZINC000893400114    0.0600
     22 C22        -5.6521    3.3545   52.2067 C.3     1  ZINC000893400114    0.1400
     23 H23        -6.0944    4.1832   51.6539 H       1  ZINC000893400114    0.0800
     24 C24        -6.6494    2.8373   53.2453 C.3     1  ZINC000893400114   -0.1200
     25 C25        -7.8426    2.1978   52.5325 C.3     1  ZINC000893400114    0.0700
     26 H26        -7.8929    2.5541   51.5036 H       1  ZINC000893400114    0.0800
     27 C27        -9.1486    2.5543   53.2746 C.3     1  ZINC000893400114   -0.1500
     28 C28        -9.9492    1.2262   53.1892 C.3     1  ZINC000893400114   -0.1600
     29 C29        -8.8037    0.1862   53.2745 C.3     1  ZINC000893400114    0.0500
     30 O30        -7.7098    0.7717   52.5469 O.3     1  ZINC000893400114   -0.3800
     31 H31        -2.4596    4.5651   54.2781 H       1  ZINC000893400114    0.4000
     32 H32        -2.2352    6.4023   55.8811 H       1  ZINC000893400114    0.1000
     33 H33        -2.6397    6.1168   57.6069 H       1  ZINC000893400114    0.1000
     34 H34        -0.3257    5.0316   55.9740 H       1  ZINC000893400114    0.0700
     35 H35        -0.3794    5.4523   57.7118 H       1  ZINC000893400114    0.0800
     36 H36        -0.5008    1.6351   57.5185 H       1  ZINC000893400114    0.0900
     37 H37         1.2546    2.8983   56.3356 H       1  ZINC000893400114    0.0800
     38 H38         1.3602    4.0519   57.6885 H       1  ZINC000893400114    0.0900
     39 H39         1.9583    1.0607   57.8214 H       1  ZINC000893400114    0.0500
     40 H40         3.1596    2.3738   57.8634 H       1  ZINC000893400114    0.1000
     41 H41         0.4625    0.7990   59.7180 H       1  ZINC000893400114    0.0500
     42 H42         0.6194    1.9293   61.0842 H       1  ZINC000893400114    0.1000
     43 H43        -0.2066    3.7778   59.6752 H       1  ZINC000893400114    0.0900
     44 H44        -1.3795    2.4375   59.6756 H       1  ZINC000893400114    0.0700
     45 H45        -3.4627    5.0489   51.4708 H       1  ZINC000893400114    0.0800
     46 H46        -2.3863    4.2945   52.6749 H       1  ZINC000893400114    0.0800
     47 H47        -2.2387    3.2518   50.3645 H       1  ZINC000893400114    0.1100
     48 H48        -2.6802    2.1024   51.6512 H       1  ZINC000893400114    0.0500
     49 H49        -6.1527    1.9709   50.6328 H       1  ZINC000893400114    0.1300
     50 H50        -4.9648    1.3547   51.8077 H       1  ZINC000893400114    0.0500
     51 H51        -6.1632    2.0945   53.8777 H       1  ZINC000893400114    0.0800
     52 H52        -6.9962    3.6674   53.8609 H       1  ZINC000893400114    0.1100
     53 H53        -8.9453    2.8187   54.3123 H       1  ZINC000893400114    0.0800
     54 H54        -9.6773    3.3594   52.7644 H       1  ZINC000893400114    0.0800
     55 H55       -10.6344    1.1257   54.0309 H       1  ZINC000893400114    0.0800
     56 H56       -10.4808    1.1482   52.2408 H       1  ZINC000893400114    0.0800
     57 H57        -8.5213    0.0189   54.3139 H       1  ZINC000893400114    0.0600
     58 H58        -9.1082   -0.7511   52.8088 H       1  ZINC000893400114    0.0800
@<TRIPOS>BOND
     1     1     2    2
     2     2     3   am
     3     2    17   am
     4     3     4    1
     5     3    31    1
     6     4     5    1
     7     4    15    1
     8     4     6    1
     9     6     7    1
    10     6    32    1
    11     6    33    1
    12     7     8    1
    13     7    34    1
    14     7    35    1
    15     8     9    1
    16     8    15   am
    17     9    14    1
    18     9    10    1
    19     9    36    1
    20    10    11    1
    21    10    37    1
    22    10    38    1
    23    11    12    1
    24    11    39    1
    25    11    40    1
    26    12    13    1
    27    13    14    1
    28    13    41    1
    29    13    42    1
    30    14    43    1
    31    14    44    1
    32    15    16    2
    33    17    22    1
    34    17    18    1
    35    18    19    1
    36    18    45    1
    37    18    46    1
    38    19    20    1
    39    19    47    1
    40    19    48    1
    41    20    21    1
    42    21    22    1
    43    21    49    1
    44    21    50    1
    45    22    23    1
    46    22    24    1
    47    24    25    1
    48    24    51    1
    49    24    52    1
    50    25    26    1
    51    25    30    1
    52    25    27    1
    53    27    28    1
    54    27    53    1
    55    27    54    1
    56    28    29    1
    57    28    55    1
    58    28    56    1
    59    29    30    1
    60    29    57    1
    61    29    58    1
@<TRIPOS>SUBSTRUCTURE
     1 ZINC000893400114        1 TEMP              0 ****  ****    0 ROOT


##########                                Name:    ZINC000790735374
##########                DOCK_Rotatable_Bonds:                   5
##########                         Heavy_Atoms:                  25
##########                    Molecular_Weight:             353.445
##########                DOCK_Rotatable_Bonds:                   5
##########                       Formal_Charge:                   0
##########                     HBond_Acceptors:                   6
##########                        HBond_Donors:                   1
##########                         Heavy_Atoms:                  25
##########                          Grid_Score:          -27.414196
##########                     Grid_vdw_energy:          -24.820608
##########                      Grid_es_energy:           -2.593588
##########           Internal_energy_repulsive:            9.626629

@<TRIPOS>MOLECULE
ZINC000790735374
 44 47 1 0 0
SMALL
USER_CHARGES


@<TRIPOS>ATOM
      1 O1         -9.9181   -0.1578   61.6615 O.2     1  ZINC000790735374   -0.5100
      2 C2         -8.7109   -0.2740   61.6664 C.2     1  ZINC000790735374    0.5000
      3 N3         -8.0635   -0.6290   60.5389 N.am    1  ZINC000790735374   -0.7200
      4 C4         -8.8185   -0.8807   59.3090 C.3     1  ZINC000790735374    0.1400
      5 C5         -9.0151    0.4349   58.5530 C.3     1  ZINC000790735374   -0.0300
      6 H6         -9.8086    1.0098   59.0304 H       1  ZINC000790735374    0.1100
      7 S7         -7.4735    1.3884   58.5980 S.3     1  ZINC000790735374   -0.2400
      8 C8         -7.8092    2.6435   57.3225 C.3     1  ZINC000790735374   -0.0800
      9 C9         -7.9555    1.9230   55.9904 C.3     1  ZINC000790735374   -0.0800
     10 C10        -8.9582    0.8048   56.0193 C.ar    1  ZINC000790735374   -0.0700
     11 C11        -9.4546    0.4386   54.7637 C.ar    1  ZINC000790735374   -0.1200
     12 C12       -10.3681   -0.5791   54.6207 C.ar    1  ZINC000790735374   -0.1100
     13 C13       -10.8080   -1.2615   55.7397 C.ar    1  ZINC000790735374   -0.1200
     14 C14       -10.3282   -0.9024   56.9785 C.ar    1  ZINC000790735374   -0.1100
     15 C15        -9.4040    0.1370   57.1260 C.ar    1  ZINC000790735374   -0.0800
     16 C16        -7.9341   -0.0151   62.9317 C.3     1  ZINC000790735374    0.0300
     17 H17        -6.9059   -0.3636   62.8339 H       1  ZINC000790735374    0.1500
     18 C18        -7.9771    1.4844   63.3110 C.3     1  ZINC000790735374   -0.1400
     19 C19        -9.1502    1.5482   64.2705 C.2     1  ZINC000790735374    0.1200
     20 C20        -9.8495    2.7750   64.7015 C.ar    1  ZINC000790735374   -0.1000
     21 C21       -10.9390    2.7029   65.5777 C.ar    1  ZINC000790735374   -0.0400
     22 C22       -11.5594    3.8823   65.9513 C.ar    1  ZINC000790735374   -0.1700
     23 C23       -11.0880    5.0828   65.4520 C.ar    1  ZINC000790735374    0.1200
     24 N24       -10.0588    5.1208   64.6274 N.ar    1  ZINC000790735374   -0.4800
     25 C25        -9.4319    4.0273   64.2467 C.ar    1  ZINC000790735374    0.1400
     26 N26        -9.4321    0.3456   64.6454 N.2     1  ZINC000790735374   -0.2700
     27 O27        -8.5800   -0.6248   64.0677 O.3     1  ZINC000790735374   -0.1600
     28 H28        -7.0976   -0.7181   60.5418 H       1  ZINC000790735374    0.4100
     29 H29        -8.2679   -1.5815   58.6816 H       1  ZINC000790735374    0.0800
     30 H30        -9.7909   -1.3044   59.5599 H       1  ZINC000790735374    0.0900
     31 H31        -8.7320    3.1731   57.5593 H       1  ZINC000790735374    0.0900
     32 H32        -6.9801    3.3493   57.2716 H       1  ZINC000790735374    0.1100
     33 H33        -8.2611    2.6463   55.2344 H       1  ZINC000790735374    0.0900
     34 H34        -6.9856    1.5146   55.7065 H       1  ZINC000790735374    0.0900
     35 H35        -9.1126    0.9676   53.8864 H       1  ZINC000790735374    0.1200
     36 H36       -10.7396   -0.8431   53.6416 H       1  ZINC000790735374    0.1300
     37 H37       -11.5205   -2.0674   55.6427 H       1  ZINC000790735374    0.1300
     38 H38       -10.6704   -1.4354   57.8532 H       1  ZINC000790735374    0.1300
     39 H39        -7.0543    1.7845   63.8075 H       1  ZINC000790735374    0.1200
     40 H40        -8.1626    2.1009   62.4314 H       1  ZINC000790735374    0.1100
     41 H41       -11.2867    1.7515   65.9522 H       1  ZINC000790735374    0.1500
     42 H42       -12.4031    3.8653   66.6254 H       1  ZINC000790735374    0.1500
     43 H43       -11.5707    6.0046   65.7417 H       1  ZINC000790735374    0.1600
     44 H44        -8.5929    4.0988   63.5706 H       1  ZINC000790735374    0.1600
@<TRIPOS>BOND
     1     1     2    2
     2     2     3   am
     3     2    16    1
     4     3     4    1
     5     3    28    1
     6     4     5    1
     7     4    29    1
     8     4    30    1
     9     5     6    1
    10     5    15    1
    11     5     7    1
    12     7     8    1
    13     8     9    1
    14     8    31    1
    15     8    32    1
    16     9    10    1
    17     9    33    1
    18     9    34    1
    19    10    15   ar
    20    10    11   ar
    21    11    12   ar
    22    11    35    1
    23    12    13   ar
    24    12    36    1
    25    13    14   ar
    26    13    37    1
    27    14    15   ar
    28    14    38    1
    29    16    17    1
    30    16    27    1
    31    16    18    1
    32    18    19    1
    33    18    39    1
    34    18    40    1
    35    19    20    1
    36    19    26    2
    37    20    25   ar
    38    20    21   ar
    39    21    22   ar
    40    21    41    1
    41    22    23   ar
    42    22    42    1
    43    23    24   ar
    44    23    43    1
    45    24    25   ar
    46    25    44    1
    47    26    27    1
@<TRIPOS>SUBSTRUCTURE
     1 ZINC000790735374        1 TEMP              0 ****  ****    0 ROOT


##########                                Name:    ZINC000338927927
##########                DOCK_Rotatable_Bonds:                   9
##########                         Heavy_Atoms:                  23
##########                    Molecular_Weight:             336.286
##########                DOCK_Rotatable_Bonds:                   9
##########                       Formal_Charge:         -0.00999999
##########                     HBond_Acceptors:                   9
##########                        HBond_Donors:                   2
##########                         Heavy_Atoms:                  23
##########                          Grid_Score:          -27.412210
##########                     Grid_vdw_energy:          -25.950197
##########                      Grid_es_energy:           -1.462013
##########           Internal_energy_repulsive:            7.562864

@<TRIPOS>MOLECULE
ZINC000338927927
 39 39 1 0 0
SMALL
USER_CHARGES


@<TRIPOS>ATOM
      1 C1         -7.1525    4.9582   52.1210 C.3     1  <0>        -0.1600
      2 C2         -7.2158    3.5410   51.5479 C.3     1  <0>        -0.1100
      3 C3         -6.2185    2.6469   52.2872 C.3     1  <0>        -0.1000
      4 H4         -6.3431    2.7752   53.3625 H       1  <0>         0.1400
      5 C5         -4.8145    3.0291   51.8951 C.2     1  <0>         0.5200
      6 O6         -4.6162    3.6309   50.8609 O.2     1  <0>        -0.4700
      7 N7         -3.7791    2.7022   52.6937 N.am    1  <0>        -0.6700
      8 C8         -2.4756    3.0570   52.3297 C.ar    1  <0>         0.2200
      9 C9         -1.8459    4.1250   52.9553 C.ar    1  <0>        -0.2300
     10 C10        -0.5563    4.4766   52.5957 C.ar    1  <0>         0.1700
     11 F11         0.0544    5.5159   53.2056 F       1  <0>        -0.1300
     12 C12         0.1083    3.7647   51.6130 C.ar    1  <0>        -0.2500
     13 C13        -0.5180    2.6955   50.9846 C.ar    1  <0>         0.2600
     14 N14         0.1532    1.9774   49.9923 N.pl3   1  <0>        -0.7400
     15 C15         1.3313    1.1776   50.3368 C.3     1  <0>         0.0800
     16 C16         2.3822    1.3163   49.2337 C.3     1  <0>         0.4500
     17 F17         2.7977    2.6496   49.1505 F       1  <0>        -0.1800
     18 F18         3.4810    0.5031   49.5314 F       1  <0>        -0.1700
     19 F19         1.8289    0.9231   48.0103 F       1  <0>        -0.1800
     20 C20        -1.8090    2.3382   51.3474 C.ar    1  <0>        -0.2000
     21 C21        -6.4678    1.2065   51.9210 C.2     1  <0>         0.4600
     22 O22        -5.7940    0.6739   51.0712 O.2     1  <0>        -0.4600
     23 O23        -7.4383    0.5152   52.5389 O.3     1  <0>        -0.3500
     24 C24        -7.4740   -0.9183   52.3110 C.3     1  <0>         0.0300
     25 H25        -6.1456    5.3562   51.9958 H       1  <0>         0.0600
     26 H26        -7.8631    5.5952   51.5943 H       1  <0>         0.0600
     27 H27        -7.4039    4.9329   53.1814 H       1  <0>         0.0800
     28 H28        -8.2229    3.1431   51.6731 H       1  <0>         0.0800
     29 H29        -6.9644    3.5664   50.4876 H       1  <0>         0.0800
     30 H30        -3.9377    2.2210   53.5208 H       1  <0>         0.4200
     31 H31        -2.3629    4.6819   53.7226 H       1  <0>         0.1400
     32 H32         1.1145    4.0407   51.3339 H       1  <0>         0.1400
     33 H33        -0.1607    2.0082   49.0751 H       1  <0>         0.4100
     34 H34         1.7466    1.5304   51.2808 H       1  <0>         0.1100
     35 H35         1.0436    0.1308   50.4351 H       1  <0>         0.1100
     36 H36        -2.2973    1.5074   50.8600 H       1  <0>         0.1500
     37 H37        -8.3041   -1.3541   52.8671 H       1  <0>         0.1000
     38 H38        -7.6071   -1.1139   51.2470 H       1  <0>         0.0600
     39 H39        -6.5377   -1.3633   52.6478 H       1  <0>         0.0600
@<TRIPOS>BOND
     1     1     2    1
     2     1    25    1
     3     1    26    1
     4     1    27    1
     5     2     3    1
     6     2    28    1
     7     2    29    1
     8     3     4    1
     9     3     5    1
    10     3    21    1
    11     5     6    2
    12     5     7   am
    13     7     8    1
    14     7    30    1
    15     8    20   ar
    16     8     9   ar
    17     9    10   ar
    18     9    31    1
    19    10    11    1
    20    10    12   ar
    21    12    13   ar
    22    12    32    1
    23    13    14    1
    24    13    20   ar
    25    14    15    1
    26    14    33    1
    27    15    16    1
    28    15    34    1
    29    15    35    1
    30    16    17    1
    31    16    18    1
    32    16    19    1
    33    20    36    1
    34    21    22    2
    35    21    23    1
    36    23    24    1
    37    24    37    1
    38    24    38    1
    39    24    39    1
@<TRIPOS>SUBSTRUCTURE
     1 <0>         1 TEMP              0 ****  ****    0 ROOT


##########                                Name:    ZINC000011498449
##########                DOCK_Rotatable_Bonds:                   5
##########                         Heavy_Atoms:                  21
##########                    Molecular_Weight:             331.198
##########                DOCK_Rotatable_Bonds:                   5
##########                       Formal_Charge:         1.30385e-07
##########                     HBond_Acceptors:                   7
##########                        HBond_Donors:                   1
##########                         Heavy_Atoms:                  21
##########                          Grid_Score:          -27.406057
##########                     Grid_vdw_energy:          -26.310822
##########                      Grid_es_energy:           -1.095236
##########           Internal_energy_repulsive:           10.919904

@<TRIPOS>MOLECULE
ZINC000011498449
 37 38 1 0 0
SMALL
USER_CHARGES


@<TRIPOS>ATOM
      1 C1          0.2228    2.2688   60.3853 C.3     1  ZINC000011498449   -0.1500
      2 C2         -0.2789    3.0883   59.1946 C.3     1  ZINC000011498449    0.0700
      3 H3         -0.9813    3.8451   59.5437 H       1  ZINC000011498449    0.0600
      4 C4         -0.9797    2.1618   58.1943 C.3     1  ZINC000011498449    0.0800
      5 N5         -1.2847    2.9354   56.9802 N.am    1  ZINC000011498449   -0.6100
      6 C6         -2.5229    2.9319   56.4482 C.2     1  ZINC000011498449    0.5100
      7 O7         -3.4059    2.2857   56.9714 O.2     1  ZINC000011498449   -0.5300
      8 C8         -2.8103    3.7308   55.2031 C.3     1  ZINC000011498449    0.1000
      9 N9         -2.0539    3.1728   54.0794 N.am    1  ZINC000011498449   -0.7200
     10 C10        -1.9404    3.8695   52.9312 C.2     1  ZINC000011498449    0.5600
     11 O11        -2.4645    4.9616   52.8286 O.2     1  ZINC000011498449   -0.5100
     12 C12        -1.1792    3.3061   51.7976 C.ar    1  ZINC000011498449   -0.1300
     13 C13         0.2088    3.4484   51.7453 C.ar    1  ZINC000011498449   -0.0600
     14 C14         0.9139    2.9200   50.6849 C.ar    1  ZINC000011498449   -0.1100
     15 C15         0.2488    2.2486   49.6720 C.ar    1  ZINC000011498449    0.0000
     16 Cl16        1.1448    1.5860   48.3409 Cl      1  ZINC000011498449   -0.0400
     17 C17        -1.1274    2.1034   49.7169 C.ar    1  ZINC000011498449   -0.1100
     18 C18        -1.8447    2.6232   50.7757 C.ar    1  ZINC000011498449    0.0300
     19 Cl19       -3.5701    2.4405   50.8311 Cl      1  ZINC000011498449   -0.0100
     20 C20        -0.1979    3.7135   56.3646 C.3     1  ZINC000011498449    0.0700
     21 C21         0.4648    4.5643   57.4540 C.3     1  ZINC000011498449    0.0500
     22 O22         0.8285    3.7246   58.5523 O.3     1  ZINC000011498449   -0.3700
     23 H23         0.7225    2.9279   61.0952 H       1  ZINC000011498449    0.0700
     24 H24        -0.6219    1.7826   60.8733 H       1  ZINC000011498449    0.0800
     25 H25         0.9250    1.5121   60.0355 H       1  ZINC000011498449    0.0700
     26 H26        -0.3232    1.3287   57.9435 H       1  ZINC000011498449    0.0800
     27 H27        -1.9042    1.7830   58.6302 H       1  ZINC000011498449    0.1000
     28 H28        -3.8766    3.6864   54.9809 H       1  ZINC000011498449    0.1000
     29 H29        -2.5148    4.7680   55.3606 H       1  ZINC000011498449    0.1000
     30 H30        -1.6347    2.3019   54.1617 H       1  ZINC000011498449    0.4100
     31 H31         0.7290    3.9719   52.5338 H       1  ZINC000011498449    0.1500
     32 H32         1.9875    3.0301   50.6437 H       1  ZINC000011498449    0.1500
     33 H33        -1.6403    1.5789   48.9242 H       1  ZINC000011498449    0.1500
     34 H34         0.5373    3.0366   55.9295 H       1  ZINC000011498449    0.0900
     35 H35        -0.6047    4.3622   55.5888 H       1  ZINC000011498449    0.1000
     36 H36         1.3572    5.0424   57.0502 H       1  ZINC000011498449    0.1100
     37 H37        -0.2347    5.3271   57.7961 H       1  ZINC000011498449    0.0600
@<TRIPOS>BOND
     1     1     2    1
     2     1    23    1
     3     1    24    1
     4     1    25    1
     5     2     3    1
     6     2    22    1
     7     2     4    1
     8     4     5    1
     9     4    26    1
    10     4    27    1
    11     5     6   am
    12     5    20    1
    13     6     7    2
    14     6     8    1
    15     8     9    1
    16     8    28    1
    17     8    29    1
    18     9    10   am
    19     9    30    1
    20    10    11    2
    21    10    12    1
    22    12    18   ar
    23    12    13   ar
    24    13    14   ar
    25    13    31    1
    26    14    15   ar
    27    14    32    1
    28    15    16    1
    29    15    17   ar
    30    17    18   ar
    31    17    33    1
    32    18    19    1
    33    20    21    1
    34    20    34    1
    35    20    35    1
    36    21    22    1
    37    21    36    1
    38    21    37    1
@<TRIPOS>SUBSTRUCTURE
     1 ZINC000011498449        1 TEMP              0 ****  ****    0 ROOT


##########                                Name:    ZINC000179211660
##########                DOCK_Rotatable_Bonds:                   6
##########                         Heavy_Atoms:                  23
##########                    Molecular_Weight:             385.208
##########                DOCK_Rotatable_Bonds:                   6
##########                       Formal_Charge:        -1.78814e-07
##########                     HBond_Acceptors:                   6
##########                        HBond_Donors:                   1
##########                         Heavy_Atoms:                  23
##########                          Grid_Score:          -27.385489
##########                     Grid_vdw_energy:          -26.803930
##########                      Grid_es_energy:           -0.581558
##########           Internal_energy_repulsive:           14.520479

@<TRIPOS>MOLECULE
ZINC000179211660
 38 39 1 0 0
SMALL
USER_CHARGES


@<TRIPOS>ATOM
      1 C1         -2.0114    2.2730   49.8275 C.3     1  ZINC000179211660    0.0300
      2 O2         -3.3366    2.4750   50.3224 O.3     1  ZINC000179211660   -0.2700
      3 C3         -3.4586    3.1073   51.5192 C.ar    1  ZINC000179211660    0.1500
      4 C4         -2.3267    3.5345   52.1978 C.ar    1  ZINC000179211660   -0.2200
      5 C5         -2.4534    4.1775   53.4141 C.ar    1  ZINC000179211660   -0.0700
      6 C6         -3.7068    4.3948   53.9551 C.ar    1  ZINC000179211660   -0.1700
      7 C7         -4.8368    3.9695   53.2808 C.ar    1  ZINC000179211660   -0.0700
      8 C8         -4.7159    3.3316   52.0617 C.ar    1  ZINC000179211660   -0.1500
      9 C9         -5.9476    2.8688   51.3272 C.3     1  ZINC000179211660    0.1800
     10 N10        -6.1398    1.4339   51.5516 N.am    1  ZINC000179211660   -0.6200
     11 C11        -5.6041    0.4643   50.5929 C.3     1  ZINC000179211660    0.0700
     12 C12        -6.8094    1.0059   52.6401 C.2     1  ZINC000179211660    0.7000
     13 O13        -6.9676   -0.1851   52.8272 O.2     1  ZINC000179211660   -0.5300
     14 N14        -7.3037    1.8979   53.5212 N.am    1  ZINC000179211660   -0.6800
     15 C15        -7.9998    1.4531   54.6527 C.ar    1  ZINC000179211660    0.1900
     16 C16        -7.3615    1.3964   55.8834 C.ar    1  ZINC000179211660   -0.1400
     17 C17        -8.0515    0.9571   56.9996 C.ar    1  ZINC000179211660    0.1500
     18 F18        -7.4307    0.9017   58.1983 F       1  ZINC000179211660   -0.1100
     19 C19        -9.3782    0.5746   56.8890 C.ar    1  ZINC000179211660   -0.1300
     20 Br20      -10.3183   -0.0247   58.4165 Br      1  ZINC000179211660   -0.0100
     21 C21       -10.0169    0.6306   55.6628 C.ar    1  ZINC000179211660   -0.0700
     22 C22        -9.3332    1.0730   54.5455 C.ar    1  ZINC000179211660    0.0600
     23 F23        -9.9575    1.1275   53.3486 F       1  ZINC000179211660   -0.1300
     24 H24        -2.0565    1.7590   48.8673 H       1  ZINC000179211660    0.1000
     25 H25        -1.5201    3.2377   49.7005 H       1  ZINC000179211660    0.0500
     26 H26        -1.4467    1.6682   50.5371 H       1  ZINC000179211660    0.0500
     27 H27        -1.3472    3.3644   51.7758 H       1  ZINC000179211660    0.1300
     28 H28        -1.5724    4.5103   53.9428 H       1  ZINC000179211660    0.1200
     29 H29        -3.8038    4.8973   54.9062 H       1  ZINC000179211660    0.1200
     30 H30        -5.8149    4.1401   53.7058 H       1  ZINC000179211660    0.1300
     31 H31        -6.8166    3.4138   51.6958 H       1  ZINC000179211660    0.0900
     32 H32        -5.8266    3.0567   50.2603 H       1  ZINC000179211660    0.1000
     33 H33        -4.5903    0.1886   50.8831 H       1  ZINC000179211660    0.0600
     34 H34        -6.2344   -0.4249   50.5848 H       1  ZINC000179211660    0.0600
     35 H35        -5.5890    0.9080   49.5974 H       1  ZINC000179211660    0.0800
     36 H36        -7.1775    2.8480   53.3719 H       1  ZINC000179211660    0.4100
     37 H37        -6.3272    1.6946   55.9701 H       1  ZINC000179211660    0.1800
     38 H38       -11.0513    0.3319   55.5793 H       1  ZINC000179211660    0.1600
@<TRIPOS>BOND
     1     1     2    1
     2     1    24    1
     3     1    25    1
     4     1    26    1
     5     2     3    1
     6     3     8   ar
     7     3     4   ar
     8     4     5   ar
     9     4    27    1
    10     5     6   ar
    11     5    28    1
    12     6     7   ar
    13     6    29    1
    14     7     8   ar
    15     7    30    1
    16     8     9    1
    17     9    10    1
    18     9    31    1
    19     9    32    1
    20    10    11    1
    21    10    12   am
    22    11    33    1
    23    11    34    1
    24    11    35    1
    25    12    13    2
    26    12    14   am
    27    14    15    1
    28    14    36    1
    29    15    22   ar
    30    15    16   ar
    31    16    17   ar
    32    16    37    1
    33    17    18    1
    34    17    19   ar
    35    19    20    1
    36    19    21   ar
    37    21    22   ar
    38    21    38    1
    39    22    23    1
@<TRIPOS>SUBSTRUCTURE
     1 ZINC000179211660        1 TEMP              0 ****  ****    0 ROOT


##########                                Name:    ZINC000478980774
##########                DOCK_Rotatable_Bonds:                   4
##########                         Heavy_Atoms:                  26
##########                    Molecular_Weight:             401.818
##########                DOCK_Rotatable_Bonds:                   4
##########                       Formal_Charge:          -0.0100001
##########                     HBond_Acceptors:                   9
##########                        HBond_Donors:                   1
##########                         Heavy_Atoms:                  26
##########                          Grid_Score:          -27.362032
##########                     Grid_vdw_energy:          -27.238983
##########                      Grid_es_energy:           -0.123049
##########           Internal_energy_repulsive:            5.554501

@<TRIPOS>MOLECULE
ZINC000478980774
 40 42 1 0 0
SMALL
USER_CHARGES


@<TRIPOS>ATOM
      1 C1         -7.7559    4.7537   52.5954 C.3     1  ZINC000478980774   -0.1400
      2 C2         -7.1444    3.4338   52.1215 C.3     1  ZINC000478980774   -0.4600
      3 H3         -7.6493    3.1048   51.2131 H       1  ZINC000478980774    0.1500
      4 C4         -5.6780    3.6330   51.8370 C.2     1  ZINC000478980774    0.5400
      5 O5         -5.3022    4.6319   51.2608 O.2     1  ZINC000478980774   -0.5000
      6 N6         -4.7840    2.7010   52.2229 N.am    1  ZINC000478980774   -0.6600
      7 C7         -3.4208    2.8862   51.9584 C.ar    1  ZINC000478980774    0.1600
      8 C8         -2.6662    3.7299   52.7618 C.ar    1  ZINC000478980774   -0.1200
      9 C9         -1.3212    3.9139   52.5018 C.ar    1  ZINC000478980774   -0.0600
     10 C10        -0.7224    3.2574   51.4394 C.ar    1  ZINC000478980774    0.0100
     11 O11         0.5632    3.2686   50.9781 O.3     1  ZINC000478980774   -0.2900
     12 C12         0.6788    2.1075   50.1345 C.3     1  ZINC000478980774    0.5700
     13 F13         1.5392    2.3634   49.0613 F       1  ZINC000478980774   -0.1100
     14 F14         1.1289    1.0071   50.8718 F       1  ZINC000478980774   -0.1500
     15 O15        -0.6648    1.8904   49.6650 O.3     1  ZINC000478980774   -0.2800
     16 C16        -1.4773    2.4096   50.6313 C.ar    1  ZINC000478980774    0.0500
     17 C17        -2.8230    2.2214   50.8960 C.ar    1  ZINC000478980774   -0.0900
     18 S18        -7.3443    2.1763   53.4136 S.o     1  ZINC000478980774    1.3000
     19 O19        -6.6591    2.5903   54.5875 O.2     1  ZINC000478980774   -0.7800
     20 C20        -9.1320    2.1880   53.7211 C.3     1  ZINC000478980774   -0.4300
     21 C21        -9.4645    1.1782   54.7893 C.ar    1  ZINC000478980774   -0.0600
     22 C22        -9.5015    1.5626   56.1162 C.ar    1  ZINC000478980774   -0.1100
     23 C23        -9.8064    0.6364   57.0964 C.ar    1  ZINC000478980774   -0.1100
     24 C24       -10.0739   -0.6747   56.7499 C.ar    1  ZINC000478980774   -0.1100
     25 C25       -10.0371   -1.0604   55.4229 C.ar    1  ZINC000478980774   -0.1100
     26 C26        -9.7382   -0.1328   54.4413 C.ar    1  ZINC000478980774   -0.0300
     27 Cl27       -9.6918   -0.6164   52.7746 Cl      1  ZINC000478980774   -0.0600
     28 H28        -8.8166    4.6096   52.8011 H       1  ZINC000478980774    0.0800
     29 H29        -7.2510    5.0826   53.5037 H       1  ZINC000478980774    0.0700
     30 H30        -7.6358    5.5093   51.8191 H       1  ZINC000478980774    0.0700
     31 H31        -5.0846    1.9021   52.6835 H       1  ZINC000478980774    0.4200
     32 H32        -3.1307    4.2433   53.5907 H       1  ZINC000478980774    0.1500
     33 H33        -0.7362    4.5711   53.1282 H       1  ZINC000478980774    0.1500
     34 H34        -3.4087    1.5609   50.2739 H       1  ZINC000478980774    0.1600
     35 H35        -9.4374    3.1806   54.0519 H       1  ZINC000478980774    0.1100
     36 H36        -9.6604    1.9325   52.8027 H       1  ZINC000478980774    0.1300
     37 H37        -9.2919    2.5867   56.3876 H       1  ZINC000478980774    0.1400
     38 H38        -9.8352    0.9373   58.1333 H       1  ZINC000478980774    0.1300
     39 H39       -10.3113   -1.3979   57.5160 H       1  ZINC000478980774    0.1300
     40 H40       -10.2462   -2.0848   55.1523 H       1  ZINC000478980774    0.1300
@<TRIPOS>BOND
     1     1     2    1
     2     1    28    1
     3     1    29    1
     4     1    30    1
     5     2     3    1
     6     2     4    1
     7     2    18    1
     8     4     5    2
     9     4     6   am
    10     6     7    1
    11     6    31    1
    12     7    17   ar
    13     7     8   ar
    14     8     9   ar
    15     8    32    1
    16     9    10   ar
    17     9    33    1
    18    10    16   ar
    19    10    11    1
    20    11    12    1
    21    12    13    1
    22    12    14    1
    23    12    15    1
    24    15    16    1
    25    16    17   ar
    26    17    34    1
    27    18    19    2
    28    18    20    1
    29    20    21    1
    30    20    35    1
    31    20    36    1
    32    21    26   ar
    33    21    22   ar
    34    22    23   ar
    35    22    37    1
    36    23    24   ar
    37    23    38    1
    38    24    25   ar
    39    24    39    1
    40    25    26   ar
    41    25    40    1
    42    26    27    1
@<TRIPOS>SUBSTRUCTURE
     1 ZINC000478980774        1 TEMP              0 ****  ****    0 ROOT


##########                                Name:    ZINC001356153960
##########                DOCK_Rotatable_Bonds:                   8
##########                         Heavy_Atoms:                  24
##########                    Molecular_Weight:             334.366
##########                DOCK_Rotatable_Bonds:                   8
##########                       Formal_Charge:           0.0100003
##########                     HBond_Acceptors:                   6
##########                        HBond_Donors:                   1
##########                         Heavy_Atoms:                  24
##########                          Grid_Score:          -27.336460
##########                     Grid_vdw_energy:          -26.881460
##########                      Grid_es_energy:           -0.455000
##########           Internal_energy_repulsive:           13.486715

@<TRIPOS>MOLECULE
ZINC001356153960
 44 46 1 0 0
SMALL
USER_CHARGES


@<TRIPOS>ATOM
      1 O1         -0.9335    3.9003   51.9607 O.2     1  ZINC001356153960   -0.5200
      2 C2         -1.9190    3.3660   52.4254 C.2     1  ZINC001356153960    0.5100
      3 N3         -2.0128    3.1647   53.7548 N.am    1  ZINC001356153960   -0.7000
      4 C4         -0.9278    3.5965   54.6393 C.3     1  ZINC001356153960    0.1300
      5 C5         -1.0433    2.8695   55.9806 C.3     1  ZINC001356153960   -0.0800
      6 H6         -0.8272    1.8085   55.8564 H       1  ZINC001356153960    0.0900
      7 C7         -0.1051    3.4826   56.9942 C.2     1  ZINC001356153960   -0.1700
      8 C8         -0.6993    3.6487   58.1444 C.2     1  ZINC001356153960   -0.1600
      9 C9         -2.1328    3.1739   58.0898 C.3     1  ZINC001356153960   -0.1000
     10 C10        -2.4554    3.0651   56.5795 C.3     1  ZINC001356153960   -0.1200
     11 C11        -3.0259    2.9256   51.5231 C.2     1  ZINC001356153960    0.5100
     12 O12        -2.8161    2.0896   50.6688 O.2     1  ZINC001356153960   -0.5100
     13 N13        -4.2572    3.4568   51.6582 N.am    1  ZINC001356153960   -0.5500
     14 C14        -5.3423    3.0251   50.7737 C.3     1  ZINC001356153960    0.1300
     15 C15        -6.3446    2.2230   51.5629 C.ar    1  ZINC001356153960   -0.1600
     16 C16        -6.0675    0.9124   51.9020 C.ar    1  ZINC001356153960   -0.0300
     17 C17        -6.9835    0.1773   52.6307 C.ar    1  ZINC001356153960   -0.1700
     18 C18        -8.1851    0.7499   53.0120 C.ar    1  ZINC001356153960    0.1400
     19 F19        -9.0825    0.0296   53.7198 F       1  ZINC001356153960   -0.1300
     20 C20        -8.4664    2.0611   52.6679 C.ar    1  ZINC001356153960   -0.2000
     21 C21        -7.5459    2.7979   51.9432 C.ar    1  ZINC001356153960    0.1500
     22 F22        -7.8193    4.0774   51.6065 F       1  ZINC001356153960   -0.1200
     23 C23        -4.5105    4.4659   52.6896 C.3     1  ZINC001356153960    0.0700
     24 C24        -5.2432    5.7406   52.2659 C.3     1  ZINC001356153960   -0.1900
     25 C25        -3.7472    5.7879   52.5872 C.3     1  ZINC001356153960   -0.1800
     26 H26        -2.7986    2.7340   54.1258 H       1  ZINC001356153960    0.4100
     27 H27         0.0318    3.3602   54.1794 H       1  ZINC001356153960    0.0800
     28 H28        -0.9976    4.6721   54.8018 H       1  ZINC001356153960    0.0800
     29 H29         0.9220    3.7489   56.7930 H       1  ZINC001356153960    0.1200
     30 H30        -0.2284    4.0703   59.0200 H       1  ZINC001356153960    0.1300
     31 H31        -2.2285    2.1991   58.5680 H       1  ZINC001356153960    0.0800
     32 H32        -2.7911    3.8979   58.5700 H       1  ZINC001356153960    0.0700
     33 H33        -2.9133    3.9829   56.2104 H       1  ZINC001356153960    0.0800
     34 H34        -3.0904    2.2031   56.3743 H       1  ZINC001356153960    0.0800
     35 H35        -5.8324    3.8997   50.3462 H       1  ZINC001356153960    0.0900
     36 H36        -4.9344    2.4092   49.9721 H       1  ZINC001356153960    0.1400
     37 H37        -5.1325    0.4634   51.6008 H       1  ZINC001356153960    0.1600
     38 H38        -6.7641   -0.8457   52.8986 H       1  ZINC001356153960    0.1400
     39 H39        -9.4034    2.5085   52.9647 H       1  ZINC001356153960    0.1500
     40 H40        -4.7126    4.0775   53.6877 H       1  ZINC001356153960    0.1400
     41 H41        -5.5366    5.8284   51.2198 H       1  ZINC001356153960    0.1400
     42 H42        -5.9268    6.1909   52.9855 H       1  ZINC001356153960    0.0900
     43 H43        -3.4475    6.2693   53.5180 H       1  ZINC001356153960    0.1000
     44 H44        -3.0565    5.9068   51.7523 H       1  ZINC001356153960    0.0900
@<TRIPOS>BOND
     1     1     2    2
     2     2     3   am
     3     2    11    1
     4     3     4    1
     5     3    26    1
     6     4     5    1
     7     4    27    1
     8     4    28    1
     9     5     6    1
    10     5    10    1
    11     5     7    1
    12     7     8    2
    13     7    29    1
    14     8     9    1
    15     8    30    1
    16     9    10    1
    17     9    31    1
    18     9    32    1
    19    10    33    1
    20    10    34    1
    21    11    12    2
    22    11    13   am
    23    13    14    1
    24    13    23    1
    25    14    15    1
    26    14    35    1
    27    14    36    1
    28    15    21   ar
    29    15    16   ar
    30    16    17   ar
    31    16    37    1
    32    17    18   ar
    33    17    38    1
    34    18    19    1
    35    18    20   ar
    36    20    21   ar
    37    20    39    1
    38    21    22    1
    39    23    25    1
    40    23    24    1
    41    23    40    1
    42    24    25    1
    43    24    41    1
    44    24    42    1
    45    25    43    1
    46    25    44    1
@<TRIPOS>SUBSTRUCTURE
     1 ZINC001356153960        1 TEMP              0 ****  ****    0 ROOT


##########                                Name:    ZINC000542980334
##########                DOCK_Rotatable_Bonds:                   6
##########                         Heavy_Atoms:                  27
##########                    Molecular_Weight:             404.795
##########                DOCK_Rotatable_Bonds:                   6
##########                       Formal_Charge:           0.0300001
##########                     HBond_Acceptors:                  10
##########                        HBond_Donors:                   1
##########                         Heavy_Atoms:                  27
##########                          Grid_Score:          -27.324236
##########                     Grid_vdw_energy:          -26.767172
##########                      Grid_es_energy:           -0.557064
##########           Internal_energy_repulsive:           12.917871

@<TRIPOS>MOLECULE
ZINC000542980334
 44 46 1 0 0
SMALL
USER_CHARGES


@<TRIPOS>ATOM
      1 O1         -9.1946    1.3601   55.6492 O.2     1  ZINC000542980334   -0.5800
      2 C2         -9.6030    1.5839   54.5261 C.2     1  ZINC000542980334    0.7100
      3 N3         -8.7378    1.9196   53.5489 N.am    1  ZINC000542980334   -0.7400
      4 C4         -7.3058    2.0208   53.8412 C.3     1  ZINC000542980334    0.1800
      5 C5         -6.5221    1.9097   52.5588 C.ar    1  ZINC000542980334   -0.1400
      6 C6         -5.8444    3.0104   52.0639 C.ar    1  ZINC000542980334    0.1300
      7 F7         -5.8851    4.1851   52.7302 F       1  ZINC000542980334   -0.1200
      8 C8         -5.1242    2.9069   50.8856 C.ar    1  ZINC000542980334   -0.1500
      9 C9         -5.0823    1.7052   50.2046 C.ar    1  ZINC000542980334   -0.0700
     10 C10        -5.7592    0.6059   50.6989 C.ar    1  ZINC000542980334   -0.1200
     11 C11        -6.4749    0.7060   51.8786 C.ar    1  ZINC000542980334    0.0100
     12 Cl12       -7.3240   -0.6752   52.4987 Cl      1  ZINC000542980334   -0.0400
     13 N13       -10.9204    1.4908   54.2571 N.am    1  ZINC000542980334   -0.6300
     14 C14       -11.8758    1.1259   55.3119 C.3     1  ZINC000542980334    0.1100
     15 C15       -12.7085   -0.0669   54.8317 C.3     1  ZINC000542980334   -0.1300
     16 C16       -13.3562    0.2761   53.4882 C.3     1  ZINC000542980334   -0.1300
     17 C17       -12.2661    0.5532   52.4504 C.3     1  ZINC000542980334    0.1400
     18 H18       -11.6246   -0.3227   52.3538 H       1  ZINC000542980334    0.1100
     19 N19       -12.8866    0.8499   51.1569 N.pl3   1  ZINC000542980334   -0.3400
     20 C20       -13.0224    2.0732   50.6034 C.2     1  ZINC000542980334    0.0600
     21 C21       -13.6446    1.9199   49.4116 C.2     1  ZINC000542980334   -0.2300
     22 C22       -13.8977    0.5562   49.2305 C.2     1  ZINC000542980334   -0.0200
     23 C23       -14.5760   -0.0657   48.0371 C.3     1  ZINC000542980334    0.5600
     24 F24       -14.0442   -1.3396   47.8099 F       1  ZINC000542980334   -0.1700
     25 F25       -15.9492   -0.1707   48.2835 F       1  ZINC000542980334   -0.1700
     26 F26       -14.3644    0.7358   46.9102 F       1  ZINC000542980334   -0.1600
     27 N27       -13.4383   -0.0867   50.2733 N.2     1  ZINC000542980334   -0.2300
     28 C28       -11.4291    1.7585   52.9050 C.3     1  ZINC000542980334    0.1300
     29 H29        -9.0631    2.0944   52.6519 H       1  ZINC000542980334    0.4000
     30 H30        -7.0980    2.9817   54.3118 H       1  ZINC000542980334    0.0900
     31 H31        -7.0149    1.2155   54.5157 H       1  ZINC000542980334    0.0900
     32 H32        -4.5954    3.7655   50.4987 H       1  ZINC000542980334    0.1500
     33 H33        -4.5208    1.6250   49.2856 H       1  ZINC000542980334    0.1500
     34 H34        -5.7262   -0.3327   50.1658 H       1  ZINC000542980334    0.1500
     35 H35       -11.3338    0.8523   56.2172 H       1  ZINC000542980334    0.0800
     36 H36       -12.5329    1.9708   55.5182 H       1  ZINC000542980334    0.0800
     37 H37       -12.0628   -0.9371   54.7127 H       1  ZINC000542980334    0.0800
     38 H38       -13.4849   -0.2870   55.5643 H       1  ZINC000542980334    0.0900
     39 H39       -13.9691   -0.5619   53.1561 H       1  ZINC000542980334    0.0800
     40 H40       -13.9823    1.1609   53.6024 H       1  ZINC000542980334    0.0800
     41 H41       -12.6937    3.0072   51.0346 H       1  ZINC000542980334    0.1900
     42 H42       -13.9010    2.7108   48.7223 H       1  ZINC000542980334    0.1600
     43 H43       -12.0515    2.6533   52.9134 H       1  ZINC000542980334    0.0800
     44 H44       -10.5914    1.9001   52.2221 H       1  ZINC000542980334    0.1100
@<TRIPOS>BOND
     1     1     2    2
     2     2     3   am
     3     2    13   am
     4     3     4    1
     5     3    29    1
     6     4     5    1
     7     4    30    1
     8     4    31    1
     9     5    11   ar
    10     5     6   ar
    11     6     7    1
    12     6     8   ar
    13     8     9   ar
    14     8    32    1
    15     9    10   ar
    16     9    33    1
    17    10    11   ar
    18    10    34    1
    19    11    12    1
    20    13    28    1
    21    13    14    1
    22    14    15    1
    23    14    35    1
    24    14    36    1
    25    15    16    1
    26    15    37    1
    27    15    38    1
    28    16    17    1
    29    16    39    1
    30    16    40    1
    31    17    18    1
    32    17    19    1
    33    17    28    1
    34    19    27    1
    35    19    20    1
    36    20    21    2
    37    20    41    1
    38    21    22    1
    39    21    42    1
    40    22    23    1
    41    22    27    2
    42    23    24    1
    43    23    25    1
    44    23    26    1
    45    28    43    1
    46    28    44    1
@<TRIPOS>SUBSTRUCTURE
     1 ZINC000542980334        1 TEMP              0 ****  ****    0 ROOT


##########                                Name:    ZINC000846412382
##########                DOCK_Rotatable_Bonds:                   6
##########                         Heavy_Atoms:                  26
##########                    Molecular_Weight:             370.475
##########                DOCK_Rotatable_Bonds:                   6
##########                       Formal_Charge:               -0.03
##########                     HBond_Acceptors:                   7
##########                        HBond_Donors:                   4
##########                         Heavy_Atoms:                  26
##########                          Grid_Score:          -27.285881
##########                     Grid_vdw_energy:          -26.416151
##########                      Grid_es_energy:           -0.869730
##########           Internal_energy_repulsive:           17.175999

@<TRIPOS>MOLECULE
ZINC000846412382
 48 50 1 0 0
SMALL
USER_CHARGES


@<TRIPOS>ATOM
      1 C1         -3.9620    4.1616   53.7122 C.3     1  ZINC000846412382   -0.1400
      2 C2         -3.8773    3.2991   52.4794 C.2     1  ZINC000846412382    0.0300
      3 C3         -4.9561    2.7208   51.9366 C.2     1  ZINC000846412382   -0.2700
      4 C4         -6.3227    2.8480   52.4572 C.2     1  ZINC000846412382    0.6000
      5 O5         -7.0811    3.6716   51.9808 O.2     1  ZINC000846412382   -0.5200
      6 N6         -6.7374    2.0525   53.4631 N.am    1  ZINC000846412382   -0.7100
      7 C7         -8.1008    2.1806   53.9838 C.3     1  ZINC000846412382    0.1200
      8 H8         -8.5929    3.0295   53.5090 H       1  ZINC000846412382    0.1000
      9 C9         -8.8846    0.9020   53.6811 C.3     1  ZINC000846412382   -0.1700
     10 C10        -8.0501    2.4016   55.4969 C.3     1  ZINC000846412382    0.1700
     11 C11        -7.6150    3.8393   55.7881 C.3     1  ZINC000846412382   -0.1400
     12 O12        -7.1137    1.4932   56.0799 O.3     1  ZINC000846412382   -0.5500
     13 C13        -9.4164    2.1614   56.0857 C.ar    1  ZINC000846412382   -0.1200
     14 C14        -9.5901    1.1923   57.0561 C.ar    1  ZINC000846412382   -0.1100
     15 C15       -10.8434    0.9719   57.5962 C.ar    1  ZINC000846412382   -0.1200
     16 C16       -11.9227    1.7210   57.1664 C.ar    1  ZINC000846412382   -0.1200
     17 C17       -11.7487    2.6907   56.1966 C.ar    1  ZINC000846412382   -0.1200
     18 C18       -10.4947    2.9140   55.6596 C.ar    1  ZINC000846412382   -0.1000
     19 S19        -4.5110    1.7898   50.5165 S.3     1  ZINC000846412382    0.2000
     20 C20        -2.8171    2.2238   50.7021 C.ar    1  ZINC000846412382    0.1400
     21 N21        -1.7386    1.9020   49.9789 N.ar    1  ZINC000846412382   -0.5300
     22 C22        -0.5464    2.3466   50.3047 C.ar    1  ZINC000846412382    0.3900
     23 C23         0.6345    1.9539   49.4551 C.3     1  ZINC000846412382   -0.0900
     24 N24        -0.3482    3.1267   51.3517 N.ar    1  ZINC000846412382   -0.5800
     25 C25        -1.3517    3.5013   52.1304 C.ar    1  ZINC000846412382    0.5100
     26 N26        -1.1264    4.3170   53.2207 N.pl3   1  ZINC000846412382   -0.8300
     27 C27        -2.6674    3.0538   51.8219 C.ar    1  ZINC000846412382   -0.2500
     28 H28        -4.0386    5.2085   53.4186 H       1  ZINC000846412382    0.0800
     29 H29        -4.8415    3.8815   54.2919 H       1  ZINC000846412382    0.1100
     30 H30        -3.0670    4.0186   54.3178 H       1  ZINC000846412382    0.0700
     31 H31        -6.1333    1.3951   53.8422 H       1  ZINC000846412382    0.4000
     32 H32        -8.3926    0.0532   54.1561 H       1  ZINC000846412382    0.0600
     33 H33        -9.8990    0.9973   54.0686 H       1  ZINC000846412382    0.0800
     34 H34        -8.9207    0.7446   52.6032 H       1  ZINC000846412382    0.0700
     35 H35        -8.3293    4.5322   55.3434 H       1  ZINC000846412382    0.0700
     36 H36        -7.5788    3.9967   56.8660 H       1  ZINC000846412382    0.0700
     37 H37        -6.6268    4.0130   55.3622 H       1  ZINC000846412382    0.0700
     38 H38        -6.2052    1.6126   55.7706 H       1  ZINC000846412382    0.3800
     39 H39        -8.7468    0.6071   57.3919 H       1  ZINC000846412382    0.1300
     40 H40       -10.9793    0.2144   58.3538 H       1  ZINC000846412382    0.1200
     41 H41       -12.9019    1.5484   57.5879 H       1  ZINC000846412382    0.1200
     42 H42       -12.5921    3.2757   55.8606 H       1  ZINC000846412382    0.1200
     43 H43       -10.3588    3.6716   54.9019 H       1  ZINC000846412382    0.1300
     44 H44         0.7712    2.6881   48.6611 H       1  ZINC000846412382    0.0900
     45 H45         1.5311    1.9169   50.0739 H       1  ZINC000846412382    0.0900
     46 H46         0.4557    0.9726   49.0157 H       1  ZINC000846412382    0.0900
     47 H47        -0.2419    4.3648   53.6161 H       1  ZINC000846412382    0.4100
     48 H48        -1.8525    4.8426   53.5914 H       1  ZINC000846412382    0.4200
@<TRIPOS>BOND
     1     1     2    1
     2     1    28    1
     3     1    29    1
     4     1    30    1
     5     2    27    1
     6     2     3    2
     7     3     4    1
     8     3    19    1
     9     4     5    2
    10     4     6   am
    11     6     7    1
    12     6    31    1
    13     7     8    1
    14     7     9    1
    15     7    10    1
    16     9    32    1
    17     9    33    1
    18     9    34    1
    19    10    11    1
    20    10    12    1
    21    10    13    1
    22    11    35    1
    23    11    36    1
    24    11    37    1
    25    12    38    1
    26    13    18   ar
    27    13    14   ar
    28    14    15   ar
    29    14    39    1
    30    15    16   ar
    31    15    40    1
    32    16    17   ar
    33    16    41    1
    34    17    18   ar
    35    17    42    1
    36    18    43    1
    37    19    20    1
    38    20    27   ar
    39    20    21   ar
    40    21    22   ar
    41    22    23    1
    42    22    24   ar
    43    23    44    1
    44    23    45    1
    45    23    46    1
    46    24    25   ar
    47    25    26    1
    48    25    27   ar
    49    26    47    1
    50    26    48    1
@<TRIPOS>SUBSTRUCTURE
     1 ZINC000846412382        1 TEMP              0 ****  ****    0 ROOT


##########                                Name:    ZINC001513543414
##########                DOCK_Rotatable_Bonds:                   6
##########                         Heavy_Atoms:                  26
##########                    Molecular_Weight:             364.488
##########                DOCK_Rotatable_Bonds:                   6
##########                       Formal_Charge:         -0.00999974
##########                     HBond_Acceptors:                   7
##########                        HBond_Donors:                   0
##########                         Heavy_Atoms:                  26
##########                          Grid_Score:          -27.264360
##########                     Grid_vdw_energy:          -27.492159
##########                      Grid_es_energy:            0.227798
##########           Internal_energy_repulsive:           22.112459

@<TRIPOS>MOLECULE
ZINC001513543414
 58 61 1 0 0
SMALL
USER_CHARGES


@<TRIPOS>ATOM
      1 C1        -12.6535    4.2426   48.6059 C.3     1  ZINC001513543414   -0.1500
      2 C2        -11.7635    3.3197   49.4409 C.3     1  ZINC001513543414   -0.1200
      3 C3        -10.6686    4.1446   50.1201 C.3     1  ZINC001513543414    0.1100
      4 C4         -9.8010    4.8275   49.0608 C.3     1  ZINC001513543414   -0.1500
      5 C5        -11.3075    5.2066   51.0405 C.3     1  ZINC001513543414   -0.1500
      6 C6        -10.3562    5.1944   52.2680 C.3     1  ZINC001513543414   -0.1500
      7 C7         -9.9540    3.6988   52.3135 C.3     1  ZINC001513543414    0.0700
      8 H8        -10.7198    3.1165   52.8259 H       1  ZINC001513543414    0.0800
      9 C9         -8.6042    3.5329   53.0147 C.3     1  ZINC001513543414    0.1100
     10 N10        -8.2285    2.1169   53.0221 N.pl3   1  ZINC001513543414   -0.4600
     11 C11        -8.8088    1.1127   53.7464 C.2     1  ZINC001513543414    0.1900
     12 C12        -9.9684    1.2534   54.6986 C.3     1  ZINC001513543414    0.1800
     13 H13       -10.5757    2.1175   54.4291 H       1  ZINC001513543414    0.1000
     14 C14       -10.8307   -0.0339   54.6897 C.3     1  ZINC001513543414   -0.1500
     15 C15       -11.4910    0.0439   56.0933 C.3     1  ZINC001513543414   -0.1500
     16 C16       -10.3779    0.6933   56.9434 C.3     1  ZINC001513543414    0.0500
     17 O17        -9.4928    1.3794   56.0481 O.3     1  ZINC001513543414   -0.3500
     18 N18        -8.1739    0.0116   53.4600 N.2     1  ZINC001513543414   -0.2600
     19 N19        -7.2392    0.2499   52.6107 N.2     1  ZINC001513543414   -0.3100
     20 C20        -7.2308    1.5255   52.3033 C.2     1  ZINC001513543414    0.3400
     21 N21        -6.3663    2.1548   51.4217 N.3     1  ZINC001513543414   -0.4500
     22 C22        -5.4902    1.1732   50.7474 C.3     1  ZINC001513543414    0.0500
     23 C23        -4.1469    1.9171   50.5428 C.3     1  ZINC001513543414   -0.1500
     24 C24        -4.0500    2.7532   51.8459 C.3     1  ZINC001513543414    0.0700
     25 H25        -3.6485    2.1513   52.6611 H       1  ZINC001513543414    0.0800
     26 O26        -3.2501    3.9193   51.6397 O.3     1  ZINC001513543414   -0.3800
     27 C27        -3.1138    4.7431   52.7994 C.3     1  ZINC001513543414    0.0300
     28 C28        -5.5190    3.1367   52.1229 C.3     1  ZINC001513543414    0.0600
     29 O29        -9.8568    3.2944   50.9386 O.3     1  ZINC001513543414   -0.3600
     30 H30       -13.4336    3.6549   48.1221 H       1  ZINC001513543414    0.0500
     31 H31       -13.1111    4.9900   49.2541 H       1  ZINC001513543414    0.0500
     32 H32       -12.0500    4.7403   47.8469 H       1  ZINC001513543414    0.0600
     33 H33       -12.3670    2.8220   50.1999 H       1  ZINC001513543414    0.0700
     34 H34       -11.3060    2.5722   48.7928 H       1  ZINC001513543414    0.0600
     35 H35       -10.4191    5.4942   48.4596 H       1  ZINC001513543414    0.0700
     36 H36        -9.0155    5.4033   49.5505 H       1  ZINC001513543414    0.0600
     37 H37        -9.3503    4.0716   48.4179 H       1  ZINC001513543414    0.0700
     38 H38       -11.3093    6.1853   50.5608 H       1  ZINC001513543414    0.0900
     39 H39       -12.3169    4.9129   51.3291 H       1  ZINC001513543414    0.0800
     40 H40        -9.4871    5.8299   52.0976 H       1  ZINC001513543414    0.0800
     41 H41       -10.8828    5.4875   53.1762 H       1  ZINC001513543414    0.0900
     42 H42        -7.8456    4.1073   52.4831 H       1  ZINC001513543414    0.1000
     43 H43        -8.6809    3.8938   54.0404 H       1  ZINC001513543414    0.1100
     44 H44       -11.5812    0.0015   53.9000 H       1  ZINC001513543414    0.0900
     45 H45       -10.2077   -0.9235   54.5974 H       1  ZINC001513543414    0.0900
     46 H46       -12.3793    0.6752   56.0697 H       1  ZINC001513543414    0.0800
     47 H47       -11.7315   -0.9523   56.4647 H       1  ZINC001513543414    0.0900
     48 H48       -10.8154    1.4034   57.6451 H       1  ZINC001513543414    0.0700
     49 H49        -9.8313   -0.0769   57.4874 H       1  ZINC001513543414    0.0700
     50 H50        -5.3461    0.2965   51.3789 H       1  ZINC001513543414    0.0600
     51 H51        -5.9141    0.8839   49.7858 H       1  ZINC001513543414    0.0900
     52 H52        -3.3181    1.2130   50.4681 H       1  ZINC001513543414    0.0800
     53 H53        -4.1881    2.5635   49.6662 H       1  ZINC001513543414    0.0900
     54 H54        -2.4931    5.6067   52.5607 H       1  ZINC001513543414    0.0900
     55 H55        -4.0983    5.0813   53.1225 H       1  ZINC001513543414    0.0400
     56 H56        -2.6461    4.1694   53.5996 H       1  ZINC001513543414    0.0400
     57 H57        -5.7189    4.1382   51.7419 H       1  ZINC001513543414    0.1000
     58 H58        -5.7163    3.0988   53.1943 H       1  ZINC001513543414    0.0900
@<TRIPOS>BOND
     1     1     2    1
     2     1    30    1
     3     1    31    1
     4     1    32    1
     5     2     3    1
     6     2    33    1
     7     2    34    1
     8     3    29    1
     9     3     4    1
    10     3     5    1
    11     4    35    1
    12     4    36    1
    13     4    37    1
    14     5     6    1
    15     5    38    1
    16     5    39    1
    17     6     7    1
    18     6    40    1
    19     6    41    1
    20     7     8    1
    21     7     9    1
    22     7    29    1
    23     9    10    1
    24     9    42    1
    25     9    43    1
    26    10    20    1
    27    10    11    1
    28    11    12    1
    29    11    18    2
    30    12    13    1
    31    12    17    1
    32    12    14    1
    33    14    15    1
    34    14    44    1
    35    14    45    1
    36    15    16    1
    37    15    46    1
    38    15    47    1
    39    16    17    1
    40    16    48    1
    41    16    49    1
    42    18    19    1
    43    19    20    2
    44    20    21    1
    45    21    28    1
    46    21    22    1
    47    22    23    1
    48    22    50    1
    49    22    51    1
    50    23    24    1
    51    23    52    1
    52    23    53    1
    53    24    25    1
    54    24    26    1
    55    24    28    1
    56    26    27    1
    57    27    54    1
    58    27    55    1
    59    27    56    1
    60    28    57    1
    61    28    58    1
@<TRIPOS>SUBSTRUCTURE
     1 ZINC001513543414        1 TEMP              0 ****  ****    0 ROOT


##########                                Name:    ZINC001318556452
##########                DOCK_Rotatable_Bonds:                   4
##########                         Heavy_Atoms:                  26
##########                    Molecular_Weight:             368.456
##########                DOCK_Rotatable_Bonds:                   4
##########                       Formal_Charge:          -0.0200005
##########                     HBond_Acceptors:                   6
##########                        HBond_Donors:                   1
##########                         Heavy_Atoms:                  26
##########                          Grid_Score:          -27.261799
##########                     Grid_vdw_energy:          -27.433554
##########                      Grid_es_energy:            0.171756
##########           Internal_energy_repulsive:           14.829885

@<TRIPOS>MOLECULE
ZINC001318556452
 46 48 1 0 0
SMALL
USER_CHARGES


@<TRIPOS>ATOM
      1 C1         -4.8963    2.7791   50.7197 C.3     1  ZINC001318556452   -0.1300
      2 C2         -4.4424    3.2589   52.0742 C.ar    1  ZINC001318556452   -0.1000
      3 C3         -5.3264    3.9162   52.9067 C.ar    1  ZINC001318556452   -0.0500
      4 C4         -6.7458    4.1542   52.4598 C.3     1  ZINC001318556452   -0.4100
      5 S5         -7.6869    2.6086   52.5867 S.o     1  ZINC001318556452    1.2500
      6 C6         -9.3401    3.0894   52.0156 C.3     1  ZINC001318556452   -0.4900
      7 O7         -7.7544    2.2056   53.9477 O.2     1  ZINC001318556452   -0.8400
      8 C8         -4.9108    4.3561   54.1504 C.ar    1  ZINC001318556452   -0.1200
      9 C9         -3.6092    4.1402   54.5641 C.ar    1  ZINC001318556452   -0.1000
     10 C10        -2.7195    3.4841   53.7360 C.ar    1  ZINC001318556452   -0.1200
     11 C11        -3.1354    3.0353   52.4891 C.ar    1  ZINC001318556452    0.1400
     12 N12        -2.2377    2.3706   51.6486 N.am    1  ZINC001318556452   -0.6600
     13 C13        -1.1242    2.9980   51.2208 C.2     1  ZINC001318556452    0.5600
     14 O14        -0.9007    4.1414   51.5658 O.2     1  ZINC001318556452   -0.5000
     15 C15        -0.1721    2.2930   50.3294 C.2     1  ZINC001318556452   -0.0300
     16 C16        -0.5842    1.7833   49.1312 C.2     1  ZINC001318556452   -0.1600
     17 C17         0.3778    1.0942   48.2745 C.2     1  ZINC001318556452    0.5300
     18 O18         0.0109    0.6392   47.2056 O.2     1  ZINC001318556452   -0.5200
     19 N19         1.6618    0.9550   48.6477 N.am    1  ZINC001318556452   -0.5200
     20 C20         2.5957    0.2582   47.7597 C.3     1  ZINC001318556452    0.0600
     21 C21         2.1175    1.4549   49.8488 C.ar    1  ZINC001318556452    0.1800
     22 C22         3.4514    1.3001   50.2166 C.ar    1  ZINC001318556452   -0.1700
     23 C23         3.8936    1.8048   51.4201 C.ar    1  ZINC001318556452   -0.0600
     24 C24         3.0212    2.4678   52.2721 C.ar    1  ZINC001318556452   -0.1500
     25 C25         1.7083    2.6311   51.9314 C.ar    1  ZINC001318556452   -0.0600
     26 C26         1.2389    2.1324   50.7130 C.ar    1  ZINC001318556452   -0.1100
     27 H27        -5.2904    1.7666   50.8062 H       1  ZINC001318556452    0.0800
     28 H28        -5.6755    3.4412   50.3421 H       1  ZINC001318556452    0.0800
     29 H29        -4.0515    2.7826   50.0310 H       1  ZINC001318556452    0.0700
     30 H30        -7.2045    4.9120   53.0950 H       1  ZINC001318556452    0.1000
     31 H31        -6.7483    4.4972   51.4252 H       1  ZINC001318556452    0.1300
     32 H32        -9.2778    3.4590   50.9921 H       1  ZINC001318556452    0.1100
     33 H33       -10.0022    2.2241   52.0497 H       1  ZINC001318556452    0.1100
     34 H34        -9.7339    3.8739   52.6619 H       1  ZINC001318556452    0.0800
     35 H35        -5.6043    4.8696   54.7997 H       1  ZINC001318556452    0.1200
     36 H36        -3.2878    4.4852   55.5357 H       1  ZINC001318556452    0.1300
     37 H37        -1.7030    3.3162   54.0596 H       1  ZINC001318556452    0.1500
     38 H38        -2.4161    1.4577   51.3733 H       1  ZINC001318556452    0.4100
     39 H39        -1.6130    1.8885   48.8198 H       1  ZINC001318556452    0.1600
     40 H40         2.0696   -0.0673   46.8623 H       1  ZINC001318556452    0.1000
     41 H41         3.4051    0.9333   47.4818 H       1  ZINC001318556452    0.0800
     42 H42         3.0073   -0.6100   48.2745 H       1  ZINC001318556452    0.0800
     43 H43         4.1378    0.7855   49.5604 H       1  ZINC001318556452    0.1400
     44 H44         4.9287    1.6831   51.7032 H       1  ZINC001318556452    0.1300
     45 H45         3.3832    2.8573   53.2122 H       1  ZINC001318556452    0.1300
     46 H46         1.0357    3.1482   52.5999 H       1  ZINC001318556452    0.1700
@<TRIPOS>BOND
     1     1     2    1
     2     1    27    1
     3     1    28    1
     4     1    29    1
     5     2    11   ar
     6     2     3   ar
     7     3     4    1
     8     3     8   ar
     9     4     5    1
    10     4    30    1
    11     4    31    1
    12     5     6    1
    13     5     7    2
    14     6    32    1
    15     6    33    1
    16     6    34    1
    17     8     9   ar
    18     8    35    1
    19     9    10   ar
    20     9    36    1
    21    10    11   ar
    22    10    37    1
    23    11    12    1
    24    12    13   am
    25    12    38    1
    26    13    14    2
    27    13    15    1
    28    15    26    1
    29    15    16    2
    30    16    17    1
    31    16    39    1
    32    17    18    2
    33    17    19   am
    34    19    20    1
    35    19    21    1
    36    20    40    1
    37    20    41    1
    38    20    42    1
    39    21    26   ar
    40    21    22   ar
    41    22    23   ar
    42    22    43    1
    43    23    24   ar
    44    23    44    1
    45    24    25   ar
    46    24    45    1
    47    25    26   ar
    48    25    46    1
@<TRIPOS>SUBSTRUCTURE
     1 ZINC001318556452        1 TEMP              0 ****  ****    0 ROOT


##########                                Name:    ZINC001342629575
##########                DOCK_Rotatable_Bonds:                   9
##########                         Heavy_Atoms:                  29
##########                    Molecular_Weight:             396.533
##########                DOCK_Rotatable_Bonds:                   9
##########                       Formal_Charge:         -0.00999976
##########                     HBond_Acceptors:                   6
##########                        HBond_Donors:                   0
##########                         Heavy_Atoms:                  29
##########                          Grid_Score:          -27.256618
##########                     Grid_vdw_energy:          -25.371418
##########                      Grid_es_energy:           -1.885201
##########           Internal_energy_repulsive:           20.878504

@<TRIPOS>MOLECULE
ZINC001342629575
 61 64 1 0 0
SMALL
USER_CHARGES


@<TRIPOS>ATOM
      1 C1         -8.7898   -1.0045   66.2230 C.2     1  ZINC001342629575   -0.1800
      2 C2         -8.9443    0.0431   65.4518 C.2     1  ZINC001342629575   -0.1600
      3 C3         -9.8714   -0.0245   64.2657 C.3     1  ZINC001342629575   -0.0800
      4 C4         -9.2942    0.8083   63.1193 C.3     1  ZINC001342629575    0.0500
      5 H5         -8.3320    0.3942   62.8179 H       1  ZINC001342629575    0.0900
      6 C6        -10.2429    0.7778   61.9489 C.2     1  ZINC001342629575    0.2000
      7 N7        -11.4864    0.3892   61.9728 N.2     1  ZINC001342629575   -0.2700
      8 N8        -12.0029    0.4922   60.8003 N.2     1  ZINC001342629575   -0.3000
      9 C9        -11.1093    0.9559   59.9587 C.2     1  ZINC001342629575    0.3400
     10 N10       -11.2987    1.1996   58.6077 N.3     1  ZINC001342629575   -0.4300
     11 C11       -12.1052    2.4292   58.3965 C.3     1  ZINC001342629575    0.0400
     12 C12       -12.6774    2.2790   56.9706 C.3     1  ZINC001342629575   -0.1200
     13 C13       -12.6775    0.7609   56.6965 C.3     1  ZINC001342629575   -0.1200
     14 C14       -12.1055    0.1216   57.9801 C.3     1  ZINC001342629575    0.0700
     15 H15       -12.9132   -0.1847   58.6447 H       1  ZINC001342629575    0.0900
     16 C16       -11.2202   -1.0763   57.6306 C.3     1  ZINC001342629575    0.1000
     17 H17       -10.3023   -0.7312   57.1548 H       1  ZINC001342629575    0.0700
     18 C18       -11.9775   -2.0276   56.6795 C.3     1  ZINC001342629575   -0.1400
     19 C19       -11.5546   -3.4260   57.2064 C.3     1  ZINC001342629575   -0.1600
     20 C20       -11.4350   -3.1442   58.7253 C.3     1  ZINC001342629575    0.0500
     21 O21       -10.9047   -1.8105   58.8194 O.3     1  ZINC001342629575   -0.3700
     22 N22        -9.9603    1.1581   60.6662 N.pl3   1  ZINC001342629575   -0.4600
     23 C23        -8.6852    1.6677   60.1556 C.3     1  ZINC001342629575    0.1100
     24 C24        -7.9180    0.5322   59.4751 C.3     1  ZINC001342629575    0.0500
     25 O25        -6.7674    1.0635   58.8149 O.3     1  ZINC001342629575   -0.3800
     26 C26        -7.0725    1.9899   57.7706 C.3     1  ZINC001342629575    0.0300
     27 C27        -9.1071    2.2318   63.5771 C.ar    1  ZINC001342629575   -0.0900
     28 C28       -10.1971    3.0768   63.6705 C.ar    1  ZINC001342629575   -0.0900
     29 C29       -10.0256    4.3826   64.0905 C.ar    1  ZINC001342629575   -0.1200
     30 C30        -8.7639    4.8433   64.4176 C.ar    1  ZINC001342629575   -0.1200
     31 C31        -7.6740    3.9981   64.3251 C.ar    1  ZINC001342629575   -0.1200
     32 C32        -7.8463    2.6911   63.9093 C.ar    1  ZINC001342629575   -0.1100
     33 H33        -8.1254   -0.9561   67.0730 H       1  ZINC001342629575    0.1000
     34 H34        -9.3303   -1.9153   66.0113 H       1  ZINC001342629575    0.1000
     35 H35        -8.4072    0.9552   65.6661 H       1  ZINC001342629575    0.1000
     36 H36        -9.9760   -1.0609   63.9449 H       1  ZINC001342629575    0.0900
     37 H37       -10.8483    0.3698   64.5452 H       1  ZINC001342629575    0.0800
     38 H38       -12.9129    2.4840   59.1263 H       1  ZINC001342629575    0.0600
     39 H39       -11.4726    3.3145   58.4610 H       1  ZINC001342629575    0.0800
     40 H40       -13.6932    2.6717   56.9269 H       1  ZINC001342629575    0.0800
     41 H41       -12.0405    2.7934   56.2509 H       1  ZINC001342629575    0.0800
     42 H42       -13.6934    0.4084   56.5184 H       1  ZINC001342629575    0.0800
     43 H43       -12.0408    0.5303   55.8425 H       1  ZINC001342629575    0.0800
     44 H44       -13.0549   -1.8889   56.7691 H       1  ZINC001342629575    0.0900
     45 H45       -11.6515   -1.8865   55.6490 H       1  ZINC001342629575    0.0800
     46 H46       -12.3240   -4.1712   57.0045 H       1  ZINC001342629575    0.0800
     47 H47       -10.5958   -3.7305   56.7866 H       1  ZINC001342629575    0.0800
     48 H48       -12.4157   -3.1963   59.1982 H       1  ZINC001342629575    0.0600
     49 H49       -10.7520   -3.8556   59.1895 H       1  ZINC001342629575    0.0900
     50 H50        -8.8743    2.4621   59.4336 H       1  ZINC001342629575    0.1000
     51 H51        -8.0940    2.0613   60.9824 H       1  ZINC001342629575    0.1100
     52 H52        -7.6038   -0.1942   60.2246 H       1  ZINC001342629575    0.0600
     53 H53        -8.5633    0.0445   58.7445 H       1  ZINC001342629575    0.0600
     54 H54        -6.1466    2.3472   57.3198 H       1  ZINC001342629575    0.0900
     55 H55        -7.6790    1.4955   57.0119 H       1  ZINC001342629575    0.0400
     56 H56        -7.6246    2.8342   58.1838 H       1  ZINC001342629575    0.0400
     57 H57       -11.1828    2.7169   63.4149 H       1  ZINC001342629575    0.1300
     58 H58       -10.8771    5.0429   64.1628 H       1  ZINC001342629575    0.1200
     59 H59        -8.6297    5.8636   64.7451 H       1  ZINC001342629575    0.1200
     60 H60        -6.6883    4.3581   64.5804 H       1  ZINC001342629575    0.1200
     61 H61        -6.9947    2.0307   63.8371 H       1  ZINC001342629575    0.1200
@<TRIPOS>BOND
     1     1     2    2
     2     1    33    1
     3     1    34    1
     4     2     3    1
     5     2    35    1
     6     3     4    1
     7     3    36    1
     8     3    37    1
     9     4     5    1
    10     4     6    1
    11     4    27    1
    12     6    22    1
    13     6     7    2
    14     7     8    1
    15     8     9    2
    16     9    10    1
    17     9    22    1
    18    10    14    1
    19    10    11    1
    20    11    12    1
    21    11    38    1
    22    11    39    1
    23    12    13    1
    24    12    40    1
    25    12    41    1
    26    13    14    1
    27    13    42    1
    28    13    43    1
    29    14    15    1
    30    14    16    1
    31    16    17    1
    32    16    21    1
    33    16    18    1
    34    18    19    1
    35    18    44    1
    36    18    45    1
    37    19    20    1
    38    19    46    1
    39    19    47    1
    40    20    21    1
    41    20    48    1
    42    20    49    1
    43    22    23    1
    44    23    24    1
    45    23    50    1
    46    23    51    1
    47    24    25    1
    48    24    52    1
    49    24    53    1
    50    25    26    1
    51    26    54    1
    52    26    55    1
    53    26    56    1
    54    27    32   ar
    55    27    28   ar
    56    28    29   ar
    57    28    57    1
    58    29    30   ar
    59    29    58    1
    60    30    31   ar
    61    30    59    1
    62    31    32   ar
    63    31    60    1
    64    32    61    1
@<TRIPOS>SUBSTRUCTURE
     1 ZINC001342629575        1 TEMP              0 ****  ****    0 ROOT


##########                                Name:    ZINC000750807956
##########                DOCK_Rotatable_Bonds:                  11
##########                         Heavy_Atoms:                  26
##########                    Molecular_Weight:             368.473
##########                DOCK_Rotatable_Bonds:                  11
##########                       Formal_Charge:        -8.12113e-07
##########                     HBond_Acceptors:                   7
##########                        HBond_Donors:                   1
##########                         Heavy_Atoms:                  26
##########                          Grid_Score:          -27.238855
##########                     Grid_vdw_energy:          -26.304792
##########                      Grid_es_energy:           -0.934064
##########           Internal_energy_repulsive:           84.718697

@<TRIPOS>MOLECULE
ZINC000750807956
 58 59 1 0 0
SMALL
USER_CHARGES


@<TRIPOS>ATOM
      1 C1         -4.5327    2.4618   50.6108 C.3     1  ZINC000750807956   -0.1500
      2 C2         -5.0318    3.3061   51.7852 C.3     1  ZINC000750807956    0.0700
      3 O3         -4.0554    3.2667   52.8591 O.3     1  ZINC000750807956   -0.3600
      4 C4         -3.9692    4.3517   53.6446 C.2     1  ZINC000750807956    0.4800
      5 O5         -4.6218    5.3359   53.3889 O.2     1  ZINC000750807956   -0.4900
      6 C6         -3.0586    4.3424   54.8453 C.3     1  ZINC000750807956    0.1600
      7 H7         -2.7196    5.3570   55.0546 H       1  ZINC000750807956    0.1000
      8 C8         -1.8494    3.4445   54.5658 C.3     1  ZINC000750807956   -0.1300
      9 C9         -1.0014    3.3281   55.8344 C.3     1  ZINC000750807956   -0.1200
     10 C10        -1.8320    2.6868   56.9483 C.3     1  ZINC000750807956   -0.1400
     11 C11        -3.0411    3.5762   57.2548 C.3     1  ZINC000750807956    0.1100
     12 N12        -3.7837    3.8154   56.0093 N.am    1  ZINC000750807956   -0.6100
     13 C13        -5.1032    3.5514   55.9352 C.2     1  ZINC000750807956    0.5100
     14 O14        -5.7049    3.7531   54.9016 O.2     1  ZINC000750807956   -0.5000
     15 C15        -5.8312    3.0056   57.1365 C.3     1  ZINC000750807956   -0.1400
     16 C16        -7.3287    2.9268   56.8331 C.3     1  ZINC000750807956    0.2100
     17 H17        -7.6291    3.8016   56.2565 H       1  ZINC000750807956    0.1000
     18 N18        -8.0803    2.8887   58.0899 N.am    1  ZINC000750807956   -0.7000
     19 C19        -7.8347    1.9188   58.9929 C.2     1  ZINC000750807956    0.6600
     20 O20        -6.9888    1.0767   58.7651 O.2     1  ZINC000750807956   -0.5600
     21 O21        -8.5266    1.8829   60.1473 O.3     1  ZINC000750807956   -0.3700
     22 C22        -9.9333    1.5332   60.0622 C.3     1  ZINC000750807956    0.1400
     23 C23       -10.1255    0.4464   59.0026 C.3     1  ZINC000750807956   -0.1800
     24 C24       -10.4126    1.0132   61.4189 C.3     1  ZINC000750807956   -0.1400
     25 C25       -10.7441    2.7717   59.6753 C.3     1  ZINC000750807956   -0.1800
     26 C26        -7.6196    1.6597   56.0263 C.3     1  ZINC000750807956   -0.1800
     27 C27        -9.0850    1.3245   55.7414 C.3     1  ZINC000750807956   -0.1700
     28 C28        -8.1839    1.8349   54.6150 C.3     1  ZINC000750807956   -0.1800
     29 H29        -4.3933    1.4313   50.9376 H       1  ZINC000750807956    0.0600
     30 H30        -5.2657    2.4914   49.8047 H       1  ZINC000750807956    0.0800
     31 H31        -3.5835    2.8613   50.2537 H       1  ZINC000750807956    0.0700
     32 H32        -5.1712    4.3366   51.4584 H       1  ZINC000750807956    0.0700
     33 H33        -5.9810    2.9066   52.1424 H       1  ZINC000750807956    0.0600
     34 H34        -2.1930    2.4545   54.2658 H       1  ZINC000750807956    0.0800
     35 H35        -1.2500    3.8798   53.7662 H       1  ZINC000750807956    0.0800
     36 H36        -0.1271    2.7095   55.6313 H       1  ZINC000750807956    0.0800
     37 H37        -0.6786    4.3210   56.1478 H       1  ZINC000750807956    0.0700
     38 H38        -2.1759    1.7039   56.6259 H       1  ZINC000750807956    0.0700
     39 H39        -1.2204    2.5828   57.8445 H       1  ZINC000750807956    0.0800
     40 H40        -3.6882    3.0773   57.9762 H       1  ZINC000750807956    0.0900
     41 H41        -2.7005    4.5278   57.6631 H       1  ZINC000750807956    0.0800
     42 H42        -5.4544    2.0093   57.3680 H       1  ZINC000750807956    0.1200
     43 H43        -5.6676    3.6634   57.9902 H       1  ZINC000750807956    0.1100
     44 H44        -8.7548    3.5617   58.2724 H       1  ZINC000750807956    0.4000
     45 H45        -9.5478   -0.4359   59.2781 H       1  ZINC000750807956    0.0600
     46 H46       -11.1815    0.1840   58.9387 H       1  ZINC000750807956    0.0700
     47 H47        -9.7841    0.8169   58.0360 H       1  ZINC000750807956    0.0900
     48 H48       -10.2757    1.7875   62.1738 H       1  ZINC000750807956    0.0700
     49 H49       -11.4686    0.7507   61.3551 H       1  ZINC000750807956    0.0800
     50 H50        -9.8349    0.1308   61.6946 H       1  ZINC000750807956    0.0700
     51 H51       -10.4027    3.1422   58.7087 H       1  ZINC000750807956    0.0900
     52 H52       -11.8001    2.5092   59.6114 H       1  ZINC000750807956    0.0700
     53 H53       -10.6073    3.5460   60.4302 H       1  ZINC000750807956    0.0600
     54 H54        -6.9363    0.8275   56.1955 H       1  ZINC000750807956    0.1100
     55 H55        -9.3661    0.2716   55.7231 H       1  ZINC000750807956    0.0900
     56 H56        -9.8418    2.0067   56.1286 H       1  ZINC000750807956    0.0900
     57 H57        -8.3480    2.8528   54.2613 H       1  ZINC000750807956    0.1200
     58 H58        -7.8722    1.1176   53.8558 H       1  ZINC000750807956    0.0900
@<TRIPOS>BOND
     1     1     2    1
     2     1    29    1
     3     1    30    1
     4     1    31    1
     5     2     3    1
     6     2    32    1
     7     2    33    1
     8     3     4    1
     9     4     5    2
    10     4     6    1
    11     6     7    1
    12     6    12    1
    13     6     8    1
    14     8     9    1
    15     8    34    1
    16     8    35    1
    17     9    10    1
    18     9    36    1
    19     9    37    1
    20    10    11    1
    21    10    38    1
    22    10    39    1
    23    11    12    1
    24    11    40    1
    25    11    41    1
    26    12    13   am
    27    13    14    2
    28    13    15    1
    29    15    16    1
    30    15    42    1
    31    15    43    1
    32    16    17    1
    33    16    18    1
    34    16    26    1
    35    18    19   am
    36    18    44    1
    37    19    20    2
    38    19    21    1
    39    21    22    1
    40    22    23    1
    41    22    24    1
    42    22    25    1
    43    23    45    1
    44    23    46    1
    45    23    47    1
    46    24    48    1
    47    24    49    1
    48    24    50    1
    49    25    51    1
    50    25    52    1
    51    25    53    1
    52    26    28    1
    53    26    27    1
    54    26    54    1
    55    27    28    1
    56    27    55    1
    57    27    56    1
    58    28    57    1
    59    28    58    1
@<TRIPOS>SUBSTRUCTURE
     1 ZINC000750807956        1 TEMP              0 ****  ****    0 ROOT


##########                                Name:    ZINC000441887161
##########                DOCK_Rotatable_Bonds:                   6
##########                         Heavy_Atoms:                  27
##########                    Molecular_Weight:             383.514
##########                DOCK_Rotatable_Bonds:                   6
##########                       Formal_Charge:          -0.0300002
##########                     HBond_Acceptors:                   6
##########                        HBond_Donors:                   1
##########                         Heavy_Atoms:                  27
##########                          Grid_Score:          -27.231077
##########                     Grid_vdw_energy:          -26.645899
##########                      Grid_es_energy:           -0.585178
##########           Internal_energy_repulsive:           18.209177

@<TRIPOS>MOLECULE
ZINC000441887161
 52 54 1 0 0
SMALL
USER_CHARGES


@<TRIPOS>ATOM
      1 C1        -14.2081    1.9170   47.6479 C.3     1  ZINC000441887161   -0.1200
      2 C2        -13.4068    1.8969   48.9240 C.ar    1  ZINC000441887161   -0.0700
      3 C3        -13.6156    0.8975   49.8555 C.ar    1  ZINC000441887161   -0.1200
      4 C4        -12.8804    0.8791   51.0263 C.ar    1  ZINC000441887161   -0.0900
      5 C5        -11.9363    1.8598   51.2649 C.ar    1  ZINC000441887161   -0.1100
      6 C6        -11.1353    1.8400   52.5412 C.3     1  ZINC000441887161    0.1900
      7 H7        -10.1580    2.2892   52.3639 H       1  ZINC000441887161    0.1000
      8 C8        -11.8741    2.6354   53.6193 C.3     1  ZINC000441887161    0.1000
      9 N9        -13.1038    1.9304   53.9898 N.pl3   1  ZINC000441887161   -0.4600
     10 C10       -14.3376    2.0957   53.4207 C.2     1  ZINC000441887161   -0.0500
     11 C11       -15.1763    1.2567   54.0582 C.2     1  ZINC000441887161   -0.0200
     12 N12       -14.4736    0.5973   54.9911 N.2     1  ZINC000441887161   -0.4900
     13 C13       -13.2303    0.9920   54.9526 C.2     1  ZINC000441887161    0.1800
     14 N14       -10.9625    0.4555   52.9879 N.am    1  ZINC000441887161   -1.1100
     15 S15        -9.6743    0.0491   53.9459 S.o2    1  ZINC000441887161    2.6900
     16 O16        -9.7061    0.9338   55.0574 O.2     1  ZINC000441887161   -0.9600
     17 O17        -9.7025   -1.3655   54.0773 O.2     1  ZINC000441887161   -0.9500
     18 C18        -8.2110    0.4359   53.0438 C.ar    1  ZINC000441887161   -0.6800
     19 C19        -7.6905   -0.4776   52.1466 C.ar    1  ZINC000441887161   -0.0300
     20 C20        -6.5423   -0.1741   51.4388 C.ar    1  ZINC000441887161   -0.1300
     21 C21        -5.9152    1.0429   51.6280 C.ar    1  ZINC000441887161   -0.0200
     22 C22        -4.6633    1.3735   50.8569 C.3     1  ZINC000441887161   -0.1300
     23 C23        -6.4366    1.9572   52.5246 C.ar    1  ZINC000441887161   -0.1000
     24 C24        -5.7530    3.2844   52.7306 C.3     1  ZINC000441887161   -0.1200
     25 C25        -7.5866    1.6554   53.2292 C.ar    1  ZINC000441887161   -0.0100
     26 C26       -11.7264    2.8588   50.3324 C.ar    1  ZINC000441887161   -0.0700
     27 C27       -10.6966    3.9279   50.5924 C.3     1  ZINC000441887161   -0.1300
     28 C28       -12.4587    2.8750   49.1604 C.ar    1  ZINC000441887161   -0.1200
     29 H29       -13.6878    1.3406   46.8829 H       1  ZINC000441887161    0.0700
     30 H30       -15.1896    1.4786   47.8282 H       1  ZINC000441887161    0.0700
     31 H31       -14.3266    2.9463   47.3094 H       1  ZINC000441887161    0.0700
     32 H32       -14.3534    0.1310   49.6690 H       1  ZINC000441887161    0.1200
     33 H33       -13.0442    0.0984   51.7545 H       1  ZINC000441887161    0.1200
     34 H34       -11.2356    2.7379   54.4968 H       1  ZINC000441887161    0.1100
     35 H35       -12.1240    3.6241   53.2344 H       1  ZINC000441887161    0.1000
     36 H36       -14.5902    2.7696   52.6154 H       1  ZINC000441887161    0.1700
     37 H37       -16.2299    1.1361   53.8540 H       1  ZINC000441887161    0.1600
     38 H38       -12.4357    0.6325   55.5896 H       1  ZINC000441887161    0.2000
     39 H39       -11.6027   -0.2232   52.7224 H       1  ZINC000441887161    0.4200
     40 H40        -8.1805   -1.4285   51.9987 H       1  ZINC000441887161    0.1300
     41 H41        -6.1352   -0.8882   50.7383 H       1  ZINC000441887161    0.1300
     42 H42        -4.9318    1.8637   49.9212 H       1  ZINC000441887161    0.0800
     43 H43        -4.0368    2.0401   51.4497 H       1  ZINC000441887161    0.0800
     44 H44        -4.1158    0.4557   50.6423 H       1  ZINC000441887161    0.0700
     45 H45        -6.1586    4.0146   52.0302 H       1  ZINC000441887161    0.0800
     46 H46        -5.9236    3.6264   53.7513 H       1  ZINC000441887161    0.0700
     47 H47        -4.6825    3.1722   52.5591 H       1  ZINC000441887161    0.0700
     48 H48        -7.9938    2.3697   53.9296 H       1  ZINC000441887161    0.1400
     49 H49        -9.7326    3.6076   50.1969 H       1  ZINC000441887161    0.0800
     50 H50       -11.0012    4.8527   50.1024 H       1  ZINC000441887161    0.0700
     51 H51       -10.6110    4.0966   51.6658 H       1  ZINC000441887161    0.0600
     52 H52       -12.2947    3.6554   48.4319 H       1  ZINC000441887161    0.1300
@<TRIPOS>BOND
     1     1     2    1
     2     1    29    1
     3     1    30    1
     4     1    31    1
     5     2    28   ar
     6     2     3   ar
     7     3     4   ar
     8     3    32    1
     9     4     5   ar
    10     4    33    1
    11     5     6    1
    12     5    26   ar
    13     6     7    1
    14     6     8    1
    15     6    14    1
    16     8     9    1
    17     8    34    1
    18     8    35    1
    19     9    13    1
    20     9    10    1
    21    10    11    2
    22    10    36    1
    23    11    12    1
    24    11    37    1
    25    12    13    2
    26    13    38    1
    27    14    15   am
    28    14    39    1
    29    15    16    2
    30    15    17    2
    31    15    18    1
    32    18    25   ar
    33    18    19   ar
    34    19    20   ar
    35    19    40    1
    36    20    21   ar
    37    20    41    1
    38    21    22    1
    39    21    23   ar
    40    22    42    1
    41    22    43    1
    42    22    44    1
    43    23    24    1
    44    23    25   ar
    45    24    45    1
    46    24    46    1
    47    24    47    1
    48    25    48    1
    49    26    27    1
    50    26    28   ar
    51    27    49    1
    52    27    50    1
    53    27    51    1
    54    28    52    1
@<TRIPOS>SUBSTRUCTURE
     1 ZINC000441887161        1 TEMP              0 ****  ****    0 ROOT


##########                                Name:    ZINC000915315870
##########                DOCK_Rotatable_Bonds:                   4
##########                         Heavy_Atoms:                  24
##########                    Molecular_Weight:             357.381
##########                DOCK_Rotatable_Bonds:                   4
##########                       Formal_Charge:           0.0300002
##########                     HBond_Acceptors:                   9
##########                        HBond_Donors:                   1
##########                         Heavy_Atoms:                  24
##########                          Grid_Score:          -27.221159
##########                     Grid_vdw_energy:          -27.607216
##########                      Grid_es_energy:            0.386057
##########           Internal_energy_repulsive:           36.339649

@<TRIPOS>MOLECULE
ZINC000915315870
 41 43 1 0 0
SMALL
USER_CHARGES


@<TRIPOS>ATOM
      1 C1         -9.5569    6.9713   51.4597 C.3     1  ZINC000915315870    0.0300
      2 O2         -9.6797    5.7384   52.1716 O.3     1  ZINC000915315870   -0.3200
      3 C3         -8.7501    4.7801   51.9116 C.ar    1  ZINC000915315870    0.0800
      4 C4         -7.7378    5.0239   50.9932 C.ar    1  ZINC000915315870    0.0900
      5 F5         -7.6744    6.2139   50.3567 F       1  ZINC000915315870   -0.1100
      6 C6         -6.7936    4.0470   50.7309 C.ar    1  ZINC000915315870   -0.0500
      7 C7         -6.8578    2.8289   51.3818 C.ar    1  ZINC000915315870   -0.6300
      8 S8         -5.6540    1.5873   51.0445 S.o2    1  ZINC000915315870    2.7000
      9 O9         -6.2076    0.3586   51.4951 O.2     1  ZINC000915315870   -0.9400
     10 O10        -5.2209    1.8010   49.7081 O.2     1  ZINC000915315870   -0.9400
     11 N11        -4.3474    1.8951   52.0143 N.am    1  ZINC000915315870   -1.1100
     12 C12        -3.6344    3.1697   51.9000 C.3     1  ZINC000915315870    0.2400
     13 H13        -4.1981    3.8505   51.2623 H       1  ZINC000915315870    0.0900
     14 C14        -3.4580    3.7907   53.2915 C.3     1  ZINC000915315870   -0.1400
     15 C15        -2.5097    4.9887   53.2057 C.3     1  ZINC000915315870   -0.1100
     16 C16        -1.0762    4.4989   52.9657 C.3     1  ZINC000915315870   -0.0400
     17 C17        -1.0944    3.5403   51.7999 C.2     1  ZINC000915315870    0.0900
     18 N18        -0.0921    3.1264   51.0807 N.2     1  ZINC000915315870   -0.2900
     19 N19        -0.5875    2.2456   50.1072 N.pl3   1  ZINC000915315870   -0.3800
     20 C20         0.2059    1.5520   49.0896 C.3     1  ZINC000915315870    0.1000
     21 C21        -1.9258    2.1491   50.2738 C.2     1  ZINC000915315870    0.0800
     22 C22        -2.2653    2.9360   51.3105 C.2     1  ZINC000915315870   -0.2500
     23 C23        -7.8643    2.5833   52.2972 C.ar    1  ZINC000915315870   -0.0500
     24 C24        -8.8082    3.5582   52.5682 C.ar    1  ZINC000915315870    0.1000
     25 F25        -9.7914    3.3175   53.4629 F       1  ZINC000915315870   -0.1100
     26 H26       -10.3589    7.6456   51.7601 H       1  ZINC000915315870    0.1100
     27 H27        -8.5938    7.4281   51.6876 H       1  ZINC000915315870    0.0600
     28 H28        -9.6243    6.7808   50.3887 H       1  ZINC000915315870    0.0500
     29 H29        -6.0059    4.2360   50.0165 H       1  ZINC000915315870    0.1700
     30 H30        -4.0542    1.2315   52.6582 H       1  ZINC000915315870    0.4200
     31 H31        -4.4266    4.1211   53.6666 H       1  ZINC000915315870    0.0900
     32 H32        -3.0417    3.0466   53.9705 H       1  ZINC000915315870    0.0800
     33 H33        -2.8149    5.6343   52.3822 H       1  ZINC000915315870    0.0700
     34 H34        -2.5494    5.5500   54.1392 H       1  ZINC000915315870    0.0800
     35 H35        -0.4318    5.3470   52.7345 H       1  ZINC000915315870    0.0800
     36 H36        -0.7082    3.9885   53.8558 H       1  ZINC000915315870    0.0900
     37 H37         0.5395    0.5913   49.4816 H       1  ZINC000915315870    0.0800
     38 H38        -0.4045    1.3898   48.2012 H       1  ZINC000915315870    0.0900
     39 H39         1.0729    2.1590   48.8289 H       1  ZINC000915315870    0.0900
     40 H40        -2.6005    1.5488   49.6814 H       1  ZINC000915315870    0.1700
     41 H41        -7.9116    1.6310   52.8044 H       1  ZINC000915315870    0.1700
@<TRIPOS>BOND
     1     1     2    1
     2     1    26    1
     3     1    27    1
     4     1    28    1
     5     2     3    1
     6     3    24   ar
     7     3     4   ar
     8     4     5    1
     9     4     6   ar
    10     6     7   ar
    11     6    29    1
    12     7     8    1
    13     7    23   ar
    14     8     9    2
    15     8    10    2
    16     8    11   am
    17    11    12    1
    18    11    30    1
    19    12    13    1
    20    12    22    1
    21    12    14    1
    22    14    15    1
    23    14    31    1
    24    14    32    1
    25    15    16    1
    26    15    33    1
    27    15    34    1
    28    16    17    1
    29    16    35    1
    30    16    36    1
    31    17    22    1
    32    17    18    2
    33    18    19    1
    34    19    20    1
    35    19    21    1
    36    20    37    1
    37    20    38    1
    38    20    39    1
    39    21    22    2
    40    21    40    1
    41    23    24   ar
    42    23    41    1
    43    24    25    1
@<TRIPOS>SUBSTRUCTURE
     1 ZINC000915315870        1 TEMP              0 ****  ****    0 ROOT


##########                                Name:    ZINC000966038509
##########                DOCK_Rotatable_Bonds:                   5
##########                         Heavy_Atoms:                  25
##########                    Molecular_Weight:             346.445
##########                DOCK_Rotatable_Bonds:                   5
##########                       Formal_Charge:           0.0299998
##########                     HBond_Acceptors:                   5
##########                        HBond_Donors:                   1
##########                         Heavy_Atoms:                  25
##########                          Grid_Score:          -27.198114
##########                     Grid_vdw_energy:          -25.376287
##########                      Grid_es_energy:           -1.821827
##########           Internal_energy_repulsive:           19.340235

@<TRIPOS>MOLECULE
ZINC000966038509
 52 54 1 0 0
SMALL
USER_CHARGES


@<TRIPOS>ATOM
      1 C1         -1.1199    4.4935   53.1830 C.3     1  ZINC000966038509   -0.1200
      2 C2         -1.9902    3.7211   52.2255 C.ar    1  ZINC000966038509   -0.0100
      3 C3         -1.4157    2.9669   51.2251 C.ar    1  ZINC000966038509   -0.1600
      4 C4         -2.2154    2.2562   50.3430 C.ar    1  ZINC000966038509    0.1300
      5 F5         -1.6471    1.5188   49.3640 F       1  ZINC000966038509   -0.1300
      6 C6         -3.5961    2.2992   50.4625 C.ar    1  ZINC000966038509   -0.1600
      7 C7         -4.1810    3.0503   51.4592 C.ar    1  ZINC000966038509   -0.0100
      8 C8         -5.6819    3.0965   51.5875 C.3     1  ZINC000966038509   -0.1200
      9 C9         -3.3802    3.7638   52.3536 C.ar    1  ZINC000966038509   -0.1500
     10 C10        -4.0015    4.5705   53.4238 C.2     1  ZINC000966038509    0.5700
     11 O11        -4.0382    5.7819   53.3285 O.2     1  ZINC000966038509   -0.5200
     12 N12        -4.5278    3.9635   54.5061 N.am    1  ZINC000966038509   -0.7100
     13 C13        -5.1455    4.7635   55.5665 C.3     1  ZINC000966038509    0.1300
     14 H14        -4.8357    5.8062   55.4973 H       1  ZINC000966038509    0.1200
     15 C15        -6.6891    4.6391   55.5283 C.3     1  ZINC000966038509    0.0900
     16 N16        -6.9826    3.3689   56.2167 N.am    1  ZINC000966038509   -0.6200
     17 C17        -8.0891    2.6191   56.0436 C.2     1  ZINC000966038509    0.5400
     18 O18        -8.9483    2.9766   55.2660 O.2     1  ZINC000966038509   -0.5300
     19 C19        -8.2585    1.3365   56.8165 C.3     1  ZINC000966038509   -0.1100
     20 C20        -8.6465    1.6361   58.2858 C.3     1  ZINC000966038509   -0.1100
     21 C21        -9.3489    0.3283   58.7274 C.3     1  ZINC000966038509   -0.1200
     22 C22       -10.1459   -0.1122   57.4821 C.3     1  ZINC000966038509   -0.1200
     23 C23        -9.4526    0.5289   56.2671 C.3     1  ZINC000966038509   -0.1100
     24 C24        -5.8680    3.0553   57.1227 C.3     1  ZINC000966038509    0.1000
     25 C25        -4.8195    4.1782   56.9661 C.3     1  ZINC000966038509   -0.1100
     26 H26        -4.9466    4.9352   57.7401 H       1  ZINC000966038509    0.1000
     27 C27        -3.4018    3.6039   57.0009 C.3     1  ZINC000966038509   -0.1400
     28 H28        -0.8773    3.8659   54.0406 H       1  ZINC000966038509    0.0800
     29 H29        -0.2004    4.7913   52.6789 H       1  ZINC000966038509    0.0800
     30 H30        -1.6524    5.3821   53.5222 H       1  ZINC000966038509    0.0700
     31 H31        -0.3407    2.9297   51.1278 H       1  ZINC000966038509    0.1400
     32 H32        -4.2144    1.7435   49.7730 H       1  ZINC000966038509    0.1400
     33 H33        -6.0150    2.2954   52.2473 H       1  ZINC000966038509    0.0800
     34 H34        -5.9815    4.0584   52.0037 H       1  ZINC000966038509    0.0700
     35 H35        -6.1346    2.9693   50.6042 H       1  ZINC000966038509    0.0800
     36 H36        -4.4974    2.9971   54.5827 H       1  ZINC000966038509    0.4000
     37 H37        -7.1501    5.4729   56.0577 H       1  ZINC000966038509    0.0800
     38 H38        -7.0412    4.6020   54.4974 H       1  ZINC000966038509    0.0800
     39 H39        -7.3450    0.7433   56.7744 H       1  ZINC000966038509    0.0900
     40 H40        -7.7581    1.8205   58.8900 H       1  ZINC000966038509    0.0700
     41 H41        -9.3334    2.4808   58.3394 H       1  ZINC000966038509    0.0700
     42 H42        -8.6120   -0.4287   58.9960 H       1  ZINC000966038509    0.0700
     43 H43       -10.0221    0.5201   59.5629 H       1  ZINC000966038509    0.0700
     44 H44       -10.1279   -1.1983   57.3922 H       1  ZINC000966038509    0.0700
     45 H45       -11.1750    0.2400   57.5536 H       1  ZINC000966038509    0.0700
     46 H46       -10.1452    1.1922   55.7490 H       1  ZINC000966038509    0.0800
     47 H47        -9.0981   -0.2461   55.5876 H       1  ZINC000966038509    0.0700
     48 H48        -6.2250    3.0225   58.1521 H       1  ZINC000966038509    0.0800
     49 H49        -5.4274    2.0963   56.8503 H       1  ZINC000966038509    0.0700
     50 H50        -3.2868    2.8719   56.2014 H       1  ZINC000966038509    0.0600
     51 H51        -2.6802    4.4090   56.8629 H       1  ZINC000966038509    0.0700
     52 H52        -3.2287    3.1216   57.9629 H       1  ZINC000966038509    0.0700
@<TRIPOS>BOND
     1     1     2    1
     2     1    28    1
     3     1    29    1
     4     1    30    1
     5     2     9   ar
     6     2     3   ar
     7     3     4   ar
     8     3    31    1
     9     4     5    1
    10     4     6   ar
    11     6     7   ar
    12     6    32    1
    13     7     8    1
    14     7     9   ar
    15     8    33    1
    16     8    34    1
    17     8    35    1
    18     9    10    1
    19    10    11    2
    20    10    12   am
    21    12    13    1
    22    12    36    1
    23    13    14    1
    24    13    25    1
    25    13    15    1
    26    15    16    1
    27    15    37    1
    28    15    38    1
    29    16    17   am
    30    16    24    1
    31    17    18    2
    32    17    19    1
    33    19    23    1
    34    19    20    1
    35    19    39    1
    36    20    21    1
    37    20    40    1
    38    20    41    1
    39    21    22    1
    40    21    42    1
    41    21    43    1
    42    22    23    1
    43    22    44    1
    44    22    45    1
    45    23    46    1
    46    23    47    1
    47    24    25    1
    48    24    48    1
    49    24    49    1
    50    25    26    1
    51    25    27    1
    52    27    50    1
    53    27    51    1
    54    27    52    1
@<TRIPOS>SUBSTRUCTURE
     1 ZINC000966038509        1 TEMP              0 ****  ****    0 ROOT


##########                                Name:    ZINC000545381384
##########                DOCK_Rotatable_Bonds:                   6
##########                         Heavy_Atoms:                  30
##########                    Molecular_Weight:             405.543
##########                DOCK_Rotatable_Bonds:                   6
##########                       Formal_Charge:                0.05
##########                     HBond_Acceptors:                   6
##########                        HBond_Donors:                   1
##########                         Heavy_Atoms:                  30
##########                          Grid_Score:          -27.145346
##########                     Grid_vdw_energy:          -25.036732
##########                      Grid_es_energy:           -2.108613
##########           Internal_energy_repulsive:           15.905618

@<TRIPOS>MOLECULE
ZINC000545381384
 61 64 1 0 0
SMALL
USER_CHARGES


@<TRIPOS>ATOM
      1 C1         -8.8544    5.8232   56.0013 C.3     1  ZINC000545381384   -0.2000
      2 C2         -8.2311    4.4328   56.1395 C.3     1  ZINC000545381384    0.0500
      3 N3         -7.5992    4.0510   54.8695 N.3     1  ZINC000545381384   -0.5300
      4 C4         -8.2148    2.8329   54.3196 C.3     1  ZINC000545381384    0.0500
      5 C5         -7.7988    2.6957   52.8552 C.3     1  ZINC000545381384   -0.0700
      6 C6         -6.2989    2.8178   52.7322 C.ar    1  ZINC000545381384    0.1800
      7 C7         -5.5364    3.3661   53.7569 C.ar    1  ZINC000545381384   -0.0800
      8 C8         -6.1555    3.8575   55.0382 C.3     1  ZINC000545381384    0.0900
      9 C9         -4.1553    3.4683   53.6093 C.ar    1  ZINC000545381384   -0.0700
     10 C10        -3.3177    4.0500   54.6799 C.2     1  ZINC000545381384    0.5800
     11 O11        -3.1952    5.2562   54.7680 O.2     1  ZINC000545381384   -0.4800
     12 N12        -2.6901    3.2428   55.5579 N.am    1  ZINC000545381384   -0.6400
     13 C13        -1.9020    3.7910   56.5678 C.2     1  ZINC000545381384    0.3000
     14 C14        -0.5435    3.7412   56.6460 C.2     1  ZINC000545381384   -0.2700
     15 C15        -0.1565    4.4108   57.8097 C.2     1  ZINC000545381384    0.1000
     16 C16         1.2600    4.5977   58.2889 C.3     1  ZINC000545381384   -0.0300
     17 C17         1.6519    3.4260   59.1914 C.3     1  ZINC000545381384   -0.0600
     18 C18         0.7092    3.3721   60.3953 C.3     1  ZINC000545381384   -0.1500
     19 C19         1.5483    2.1185   58.4036 C.3     1  ZINC000545381384   -0.1400
     20 C20         3.0900    3.6157   59.6779 C.3     1  ZINC000545381384   -0.1400
     21 N21        -1.2320    4.8485   58.4126 N.2     1  ZINC000545381384   -0.2700
     22 N22        -2.3479    4.4778   57.6514 N.pl3   1  ZINC000545381384   -0.3900
     23 C23        -3.7470    4.7712   57.9716 C.3     1  ZINC000545381384    0.1000
     24 C24        -3.5755    2.9990   52.4054 C.ar    1  ZINC000545381384   -0.0700
     25 C25        -2.1945    3.0656   52.1815 C.ar    1  ZINC000545381384   -0.1100
     26 C26        -1.6788    2.6008   51.0090 C.ar    1  ZINC000545381384   -0.1000
     27 C27        -2.5085    2.0600   50.0287 C.ar    1  ZINC000545381384   -0.1000
     28 C28        -3.8542    1.9813   50.2131 C.ar    1  ZINC000545381384   -0.0900
     29 C29        -4.4234    2.4507   51.4114 C.ar    1  ZINC000545381384    0.1400
     30 N30        -5.7378    2.3876   51.6209 N.ar    1  ZINC000545381384   -0.4600
     31 H31        -8.0841    6.5401   55.7168 H       1  ZINC000545381384    0.0600
     32 H32        -9.6293    5.7995   55.2352 H       1  ZINC000545381384    0.0600
     33 H33        -9.2938    6.1208   56.9535 H       1  ZINC000545381384    0.0700
     34 H34        -7.4796    4.4484   56.9290 H       1  ZINC000545381384    0.0900
     35 H35        -9.0073    3.7100   56.3910 H       1  ZINC000545381384    0.0800
     36 H36        -7.8712    1.9638   54.8806 H       1  ZINC000545381384    0.0500
     37 H37        -9.3000    2.9092   54.3861 H       1  ZINC000545381384    0.0900
     38 H38        -8.1149    1.7228   52.4790 H       1  ZINC000545381384    0.1000
     39 H39        -8.2752    3.4812   52.2686 H       1  ZINC000545381384    0.1000
     40 H40        -5.6957    4.8046   55.3204 H       1  ZINC000545381384    0.0900
     41 H41        -5.9795    3.1260   55.8269 H       1  ZINC000545381384    0.0700
     42 H42        -2.7869    2.2803   55.4868 H       1  ZINC000545381384    0.4100
     43 H43         0.1174    3.2679   55.9351 H       1  ZINC000545381384    0.1700
     44 H44         1.9316    4.6360   57.4312 H       1  ZINC000545381384    0.0800
     45 H45         1.3339    5.5291   58.8501 H       1  ZINC000545381384    0.0800
     46 H46        -0.3154    3.2369   60.0488 H       1  ZINC000545381384    0.0500
     47 H47         0.9883    2.5373   61.0383 H       1  ZINC000545381384    0.0500
     48 H48         0.7829    4.3035   60.9566 H       1  ZINC000545381384    0.0800
     49 H49         2.2199    2.1569   57.5459 H       1  ZINC000545381384    0.0600
     50 H50         1.8274    1.2838   59.0466 H       1  ZINC000545381384    0.0600
     51 H51         0.5237    1.9834   58.0570 H       1  ZINC000545381384    0.0600
     52 H52         3.1638    4.5472   60.2392 H       1  ZINC000545381384    0.0500
     53 H53         3.3692    2.7810   60.3208 H       1  ZINC000545381384    0.0500
     54 H54         3.7616    3.6541   58.8202 H       1  ZINC000545381384    0.0500
     55 H55        -4.0292    5.7256   57.5270 H       1  ZINC000545381384    0.0800
     56 H56        -4.3843    3.9821   57.5724 H       1  ZINC000545381384    0.0800
     57 H57        -3.8688    4.8241   59.0534 H       1  ZINC000545381384    0.1000
     58 H58        -1.5418    3.4833   52.9339 H       1  ZINC000545381384    0.1300
     59 H59        -0.6139    2.6524   50.8371 H       1  ZINC000545381384    0.1300
     60 H60        -2.0764    1.6978   49.1075 H       1  ZINC000545381384    0.1400
     61 H61        -4.4832    1.5602   49.4427 H       1  ZINC000545381384    0.1400
@<TRIPOS>BOND
     1     1     2    1
     2     1    31    1
     3     1    32    1
     4     1    33    1
     5     2     3    1
     6     2    34    1
     7     2    35    1
     8     3     8    1
     9     3     4    1
    10     4     5    1
    11     4    36    1
    12     4    37    1
    13     5     6    1
    14     5    38    1
    15     5    39    1
    16     6    30   ar
    17     6     7   ar
    18     7     8    1
    19     7     9   ar
    20     8    40    1
    21     8    41    1
    22     9    10    1
    23     9    24   ar
    24    10    11    2
    25    10    12   am
    26    12    13    1
    27    12    42    1
    28    13    22    1
    29    13    14    2
    30    14    15    1
    31    14    43    1
    32    15    16    1
    33    15    21    2
    34    16    17    1
    35    16    44    1
    36    16    45    1
    37    17    18    1
    38    17    19    1
    39    17    20    1
    40    18    46    1
    41    18    47    1
    42    18    48    1
    43    19    49    1
    44    19    50    1
    45    19    51    1
    46    20    52    1
    47    20    53    1
    48    20    54    1
    49    21    22    1
    50    22    23    1
    51    23    55    1
    52    23    56    1
    53    23    57    1
    54    24    29   ar
    55    24    25   ar
    56    25    26   ar
    57    25    58    1
    58    26    27   ar
    59    26    59    1
    60    27    28   ar
    61    27    60    1
    62    28    29   ar
    63    28    61    1
    64    29    30   ar
@<TRIPOS>SUBSTRUCTURE
     1 ZINC000545381384        1 TEMP              0 ****  ****    0 ROOT


##########                                Name:    ZINC000373864439
##########                DOCK_Rotatable_Bonds:                   7
##########                         Heavy_Atoms:                  23
##########                    Molecular_Weight:              344.45
##########                DOCK_Rotatable_Bonds:                   7
##########                       Formal_Charge:          -0.0300001
##########                     HBond_Acceptors:                   7
##########                        HBond_Donors:                   1
##########                         Heavy_Atoms:                  23
##########                          Grid_Score:          -27.100346
##########                     Grid_vdw_energy:          -24.984240
##########                      Grid_es_energy:           -2.116105
##########           Internal_energy_repulsive:           22.020269

@<TRIPOS>MOLECULE
ZINC000373864439
 48 49 1 0 0
SMALL
USER_CHARGES


@<TRIPOS>ATOM
      1 C1         -8.0775    2.6000   67.4431 C.3     1  ZINC000373864439   -0.1500
      2 C2         -9.1231    1.4839   67.3956 C.3     1  ZINC000373864439   -0.6300
      3 S3         -8.2983   -0.1054   67.1050 S.o2    1  ZINC000373864439    2.6100
      4 O4         -6.8920    0.0268   67.2608 O.2     1  ZINC000373864439   -0.9500
      5 O5         -9.0096   -1.1596   67.7389 O.2     1  ZINC000373864439   -0.9600
      6 N6         -8.5051   -0.3885   65.4865 N.am    1  ZINC000373864439   -1.1200
      7 C7         -7.9744    0.5592   64.5035 C.3     1  ZINC000373864439    0.1100
      8 C8         -9.1333    1.2867   63.8191 C.3     1  ZINC000373864439    0.0500
      9 N9         -9.5499    0.5333   62.6289 N.3     1  ZINC000373864439   -0.5300
     10 C10        -8.6551    0.8023   61.4960 C.3     1  ZINC000373864439    0.0400
     11 C11        -9.0293   -0.1052   60.3219 C.3     1  ZINC000373864439   -0.1300
     12 C12       -10.4835    0.1594   59.9220 C.3     1  ZINC000373864439    0.1800
     13 F13       -10.6169    1.4848   59.4943 F       1  ZINC000373864439   -0.2100
     14 C14       -10.8760   -0.7723   58.8044 C.ar    1  ZINC000373864439   -0.1500
     15 C15       -11.7262   -1.8318   59.0542 C.ar    1  ZINC000373864439   -0.0700
     16 C16       -12.0864   -2.6874   58.0292 C.ar    1  ZINC000373864439   -0.1600
     17 C17       -11.5972   -2.4845   56.7523 C.ar    1  ZINC000373864439   -0.0700
     18 C18       -10.7467   -1.4259   56.4971 C.ar    1  ZINC000373864439   -0.2100
     19 C19       -10.3882   -0.5631   57.5224 C.ar    1  ZINC000373864439    0.1400
     20 O20        -9.5518    0.4788   57.2740 O.3     1  ZINC000373864439   -0.3100
     21 C21       -10.0068    1.4699   56.3506 C.3     1  ZINC000373864439    0.0200
     22 C22       -11.3895   -0.0813   61.1326 C.3     1  ZINC000373864439   -0.1300
     23 C23       -10.9468    0.8256   62.2831 C.3     1  ZINC000373864439    0.0600
     24 H24        -7.5419    2.6367   66.4945 H       1  ZINC000373864439    0.0700
     25 H25        -8.5731    3.5548   67.6178 H       1  ZINC000373864439    0.0800
     26 H26        -7.3726    2.4033   68.2509 H       1  ZINC000373864439    0.0700
     27 H27        -9.6586    1.4471   68.3443 H       1  ZINC000373864439    0.1300
     28 H28        -9.8279    1.6805   66.5878 H       1  ZINC000373864439    0.1300
     29 H29        -8.9777   -1.1818   65.1894 H       1  ZINC000373864439    0.4200
     30 H30        -7.3360    1.2854   65.0068 H       1  ZINC000373864439    0.0700
     31 H31        -7.3922    0.0198   63.7563 H       1  ZINC000373864439    0.0900
     32 H32        -9.9720    1.3658   64.5110 H       1  ZINC000373864439    0.0900
     33 H33        -8.8114    2.2851   63.5229 H       1  ZINC000373864439    0.0400
     34 H34        -8.7540    1.8452   61.1947 H       1  ZINC000373864439    0.0400
     35 H35        -7.6247    0.6062   61.7924 H       1  ZINC000373864439    0.0900
     36 H36        -8.3751    0.1057   59.4760 H       1  ZINC000373864439    0.0800
     37 H37        -8.9174   -1.1482   60.6181 H       1  ZINC000373864439    0.1000
     38 H38       -12.1097   -1.9925   60.0509 H       1  ZINC000373864439    0.1300
     39 H39       -12.7508   -3.5156   58.2267 H       1  ZINC000373864439    0.1300
     40 H40       -11.8797   -3.1542   55.9535 H       1  ZINC000373864439    0.1300
     41 H41       -10.3646   -1.2680   55.4994 H       1  ZINC000373864439    0.1300
     42 H42        -9.2460    2.2431   56.2433 H       1  ZINC000373864439    0.1000
     43 H43       -10.1922    1.0060   55.3817 H       1  ZINC000373864439    0.0600
     44 H44       -10.9290    1.9166   56.7220 H       1  ZINC000373864439    0.0600
     45 H45       -12.4215    0.1468   60.8659 H       1  ZINC000373864439    0.0800
     46 H46       -11.3147   -1.1239   61.4415 H       1  ZINC000373864439    0.1000
     47 H47       -11.5810    0.6464   63.1514 H       1  ZINC000373864439    0.0800
     48 H48       -11.0350    1.8683   61.9783 H       1  ZINC000373864439    0.0400
@<TRIPOS>BOND
     1     1     2    1
     2     1    24    1
     3     1    25    1
     4     1    26    1
     5     2     3    1
     6     2    27    1
     7     2    28    1
     8     3     4    2
     9     3     5    2
    10     3     6   am
    11     6     7    1
    12     6    29    1
    13     7     8    1
    14     7    30    1
    15     7    31    1
    16     8     9    1
    17     8    32    1
    18     8    33    1
    19     9    23    1
    20     9    10    1
    21    10    11    1
    22    10    34    1
    23    10    35    1
    24    11    12    1
    25    11    36    1
    26    11    37    1
    27    12    13    1
    28    12    14    1
    29    12    22    1
    30    14    19   ar
    31    14    15   ar
    32    15    16   ar
    33    15    38    1
    34    16    17   ar
    35    16    39    1
    36    17    18   ar
    37    17    40    1
    38    18    19   ar
    39    18    41    1
    40    19    20    1
    41    20    21    1
    42    21    42    1
    43    21    43    1
    44    21    44    1
    45    22    23    1
    46    22    45    1
    47    22    46    1
    48    23    47    1
    49    23    48    1
@<TRIPOS>SUBSTRUCTURE
     1 ZINC000373864439        1 TEMP              0 ****  ****    0 ROOT


##########                                Name:    ZINC001345966764
##########                DOCK_Rotatable_Bonds:                  10
##########                         Heavy_Atoms:                  22
##########                    Molecular_Weight:             333.258
##########                DOCK_Rotatable_Bonds:                  10
##########                       Formal_Charge:           0.0099997
##########                     HBond_Acceptors:                  11
##########                        HBond_Donors:                   4
##########                         Heavy_Atoms:                  22
##########                          Grid_Score:          -27.095325
##########                     Grid_vdw_energy:          -25.218927
##########                      Grid_es_energy:           -1.876398
##########           Internal_energy_repulsive:            4.598451

@<TRIPOS>MOLECULE
ZINC001345966764
 38 38 1 0 0
SMALL
USER_CHARGES


@<TRIPOS>ATOM
      1 N1         -1.7316    2.2132   57.3517 N.3     1  ZINC001345966764   -0.8400
      2 C2         -1.1541    2.4635   56.0243 C.3     1  ZINC001345966764    0.0200
      3 C3         -1.0934    3.9711   55.7706 C.3     1  ZINC001345966764    0.2800
      4 F4         -2.3792    4.5132   55.8714 F       1  ZINC001345966764   -0.1900
      5 F5         -0.2588    4.5706   56.7201 F       1  ZINC001345966764   -0.1800
      6 C6         -0.5391    4.2303   54.3683 C.3     1  ZINC001345966764    0.0800
      7 N7         -1.3905    3.5684   53.3767 N.am    1  ZINC001345966764   -0.7000
      8 C8         -0.9469    3.3956   52.1157 C.2     1  ZINC001345966764    0.5100
      9 O9          0.1579    3.7871   51.8021 O.2     1  ZINC001345966764   -0.5100
     10 C10        -1.8162    2.7219   51.1036 C.2     1  ZINC001345966764    0.5100
     11 O11        -1.3501    2.3754   50.0381 O.2     1  ZINC001345966764   -0.5100
     12 N12        -3.1175    2.4995   51.3743 N.am    1  ZINC001345966764   -0.7000
     13 C13        -3.9692    1.8375   50.3829 C.3     1  ZINC001345966764    0.1200
     14 C14        -5.4376    2.1383   50.6897 C.3     1  ZINC001345966764    0.0600
     15 H15        -6.0090    2.2188   49.7650 H       1  ZINC001345966764    0.0900
     16 C16        -6.0337    1.0388   51.5963 C.3     1  ZINC001345966764   -0.1400
     17 C17        -6.9804    1.8072   52.5454 C.3     1  ZINC001345966764   -0.1500
     18 C18        -6.8442    3.2800   52.0999 C.3     1  ZINC001345966764    0.0300
     19 H19        -7.6325    3.5369   51.3924 H       1  ZINC001345966764    0.1200
     20 C20        -6.8954    4.2104   53.3134 C.3     1  ZINC001345966764    0.4600
     21 F21        -7.9973    3.8789   54.1091 F       1  ZINC001345966764   -0.1700
     22 F22        -5.7211    4.0677   54.0603 F       1  ZINC001345966764   -0.1700
     23 F23        -7.0144    5.5354   52.8806 F       1  ZINC001345966764   -0.1700
     24 O24        -5.5514    3.3557   51.4585 O.3     1  ZINC001345966764   -0.3500
     25 H25        -2.6592    2.6038   57.4221 H       1  ZINC001345966764    0.3500
     26 H26        -1.7375    1.2267   57.5633 H       1  ZINC001345966764    0.3600
     27 H27        -0.1478    2.0470   55.9814 H       1  ZINC001345966764    0.1100
     28 H28        -1.7754    1.9917   55.2630 H       1  ZINC001345966764    0.0700
     29 H29        -0.5241    5.3031   54.1761 H       1  ZINC001345966764    0.1100
     30 H30         0.4742    3.8346   54.2993 H       1  ZINC001345966764    0.1100
     31 H31        -2.2732    3.2544   53.6276 H       1  ZINC001345966764    0.4200
     32 H32        -3.4903    2.7776   52.2255 H       1  ZINC001345966764    0.4200
     33 H33        -3.7228    2.2073   49.3875 H       1  ZINC001345966764    0.1000
     34 H34        -3.8030    0.7610   50.4220 H       1  ZINC001345966764    0.0900
     35 H35        -6.5927    0.3156   51.0025 H       1  ZINC001345966764    0.0900
     36 H36        -5.2459    0.5419   52.1626 H       1  ZINC001345966764    0.0900
     37 H37        -8.0074    1.4638   52.4208 H       1  ZINC001345966764    0.1000
     38 H38        -6.6606    1.6902   53.5809 H       1  ZINC001345966764    0.0900
@<TRIPOS>BOND
     1     1     2    1
     2     1    25    1
     3     1    26    1
     4     2     3    1
     5     2    27    1
     6     2    28    1
     7     3     4    1
     8     3     5    1
     9     3     6    1
    10     6     7    1
    11     6    29    1
    12     6    30    1
    13     7     8   am
    14     7    31    1
    15     8     9    2
    16     8    10    1
    17    10    11    2
    18    10    12   am
    19    12    13    1
    20    12    32    1
    21    13    14    1
    22    13    33    1
    23    13    34    1
    24    14    15    1
    25    14    24    1
    26    14    16    1
    27    16    17    1
    28    16    35    1
    29    16    36    1
    30    17    18    1
    31    17    37    1
    32    17    38    1
    33    18    19    1
    34    18    20    1
    35    18    24    1
    36    20    21    1
    37    20    22    1
    38    20    23    1
@<TRIPOS>SUBSTRUCTURE
     1 ZINC001345966764        1 TEMP              0 ****  ****    0 ROOT


##########                                Name:    ZINC000001174632
##########                DOCK_Rotatable_Bonds:                   6
##########                         Heavy_Atoms:                  29
##########                    Molecular_Weight:             385.419
##########                DOCK_Rotatable_Bonds:                   6
##########                       Formal_Charge:           0.0400005
##########                     HBond_Acceptors:                   5
##########                        HBond_Donors:                   1
##########                         Heavy_Atoms:                  29
##########                          Grid_Score:          -27.092411
##########                     Grid_vdw_energy:          -26.941006
##########                      Grid_es_energy:           -0.151406
##########           Internal_energy_repulsive:           12.241812

@<TRIPOS>MOLECULE
ZINC000001174632
 48 51 1 0 0
SMALL
USER_CHARGES


@<TRIPOS>ATOM
      1 C1         -7.9886    1.1081   57.7503 C.3     1  ZINC000001174632    0.0400
      2 O2         -9.2427    1.6077   58.2848 O.3     1  ZINC000001174632   -0.3500
      3 C3        -10.3564    0.9101   57.9860 C.2     1  ZINC000001174632    0.5200
      4 O4        -11.4510    1.4010   58.1795 O.2     1  ZINC000001174632   -0.5200
      5 C5        -10.2466   -0.4479   57.4247 C.ar    1  ZINC000001174632   -0.2000
      6 C6        -10.2749   -0.6413   56.0415 C.ar    1  ZINC000001174632   -0.0200
      7 C7        -10.1712   -1.9142   55.5230 C.ar    1  ZINC000001174632   -0.1800
      8 C8        -10.0388   -3.0055   56.3664 C.ar    1  ZINC000001174632   -0.0300
      9 C9        -10.0096   -2.8315   57.7353 C.ar    1  ZINC000001174632   -0.1900
     10 C10       -10.1068   -1.5558   58.2771 C.ar    1  ZINC000001174632    0.2600
     11 N11       -10.0773   -1.3779   59.6540 N.pl3   1  ZINC000001174632   -0.6500
     12 C12       -11.2314   -1.0801   60.3317 C.2     1  ZINC000001174632    0.2300
     13 C13       -11.3153   -0.2855   61.4590 C.2     1  ZINC000001174632   -0.1800
     14 C14       -10.1809    0.3833   62.1339 C.ar    1  ZINC000001174632   -0.0600
     15 C15        -9.4927   -0.2692   63.1579 C.ar    1  ZINC000001174632   -0.0600
     16 C16        -8.4360    0.3577   63.7845 C.ar    1  ZINC000001174632   -0.1500
     17 C17        -8.0569    1.6359   63.3982 C.ar    1  ZINC000001174632    0.1400
     18 O18        -7.0147    2.2503   64.0183 O.3     1  ZINC000001174632   -0.3200
     19 C19        -7.1384    2.4768   65.4239 C.3     1  ZINC000001174632    0.0300
     20 C20        -8.7387    2.2883   62.3801 C.ar    1  ZINC000001174632   -0.2100
     21 C21        -9.7925    1.6660   61.7443 C.ar    1  ZINC000001174632   -0.0500
     22 C22       -12.7226   -0.2178   61.8724 C.2     1  ZINC000001174632    0.4500
     23 O23       -13.1680    0.3928   62.8243 O.2     1  ZINC000001174632   -0.4100
     24 C24       -13.5008   -1.0386   60.9039 C.ar    1  ZINC000001174632   -0.1600
     25 C25       -14.8461   -1.3361   60.7945 C.ar    1  ZINC000001174632   -0.0500
     26 C26       -15.2940   -2.1513   59.7597 C.ar    1  ZINC000001174632   -0.1100
     27 C27       -14.4010   -2.6635   58.8437 C.ar    1  ZINC000001174632   -0.0900
     28 C28       -13.0459   -2.3710   58.9440 C.ar    1  ZINC000001174632   -0.0800
     29 C29       -12.5877   -1.5543   59.9673 C.ar    1  ZINC000001174632   -0.0600
     30 H30        -8.0393    1.0896   56.6616 H       1  ZINC000001174632    0.0700
     31 H31        -7.1739    1.7603   58.0649 H       1  ZINC000001174632    0.1100
     32 H32        -7.8110    0.0993   58.1230 H       1  ZINC000001174632    0.0700
     33 H33       -10.3783    0.2055   55.3793 H       1  ZINC000001174632    0.1400
     34 H34       -10.1937   -2.0617   54.4533 H       1  ZINC000001174632    0.1300
     35 H35        -9.9584   -3.9987   55.9501 H       1  ZINC000001174632    0.1300
     36 H36        -9.9069   -3.6874   58.3860 H       1  ZINC000001174632    0.1300
     37 H37        -9.2402   -1.4644   60.1363 H       1  ZINC000001174632    0.4300
     38 H38        -9.7876   -1.2634   63.4595 H       1  ZINC000001174632    0.1300
     39 H39        -7.9031   -0.1466   64.5769 H       1  ZINC000001174632    0.1300
     40 H40        -8.0063    3.1077   65.6152 H       1  ZINC000001174632    0.0600
     41 H41        -7.2627    1.5226   65.9360 H       1  ZINC000001174632    0.0600
     42 H42        -6.2404    2.9727   65.7924 H       1  ZINC000001174632    0.1000
     43 H43        -8.4408    3.2829   62.0827 H       1  ZINC000001174632    0.1300
     44 H44       -10.3222    2.1740   60.9520 H       1  ZINC000001174632    0.1300
     45 H45       -15.5484   -0.9368   61.5112 H       1  ZINC000001174632    0.1400
     46 H46       -16.3453   -2.3838   59.6743 H       1  ZINC000001174632    0.1400
     47 H47       -14.7559   -3.2961   58.0437 H       1  ZINC000001174632    0.1400
     48 H48       -12.3509   -2.7754   58.2230 H       1  ZINC000001174632    0.1300
@<TRIPOS>BOND
     1     1     2    1
     2     1    30    1
     3     1    31    1
     4     1    32    1
     5     2     3    1
     6     3     4    2
     7     3     5    1
     8     5    10   ar
     9     5     6   ar
    10     6     7   ar
    11     6    33    1
    12     7     8   ar
    13     7    34    1
    14     8     9   ar
    15     8    35    1
    16     9    10   ar
    17     9    36    1
    18    10    11    1
    19    11    12    1
    20    11    37    1
    21    12    29    1
    22    12    13    2
    23    13    14    1
    24    13    22    1
    25    14    21   ar
    26    14    15   ar
    27    15    16   ar
    28    15    38    1
    29    16    17   ar
    30    16    39    1
    31    17    18    1
    32    17    20   ar
    33    18    19    1
    34    19    40    1
    35    19    41    1
    36    19    42    1
    37    20    21   ar
    38    20    43    1
    39    21    44    1
    40    22    23    2
    41    22    24    1
    42    24    29   ar
    43    24    25   ar
    44    25    26   ar
    45    25    45    1
    46    26    27   ar
    47    26    46    1
    48    27    28   ar
    49    27    47    1
    50    28    29   ar
    51    28    48    1
@<TRIPOS>SUBSTRUCTURE
     1 ZINC000001174632        1 TEMP              0 ****  ****    0 ROOT


##########                                Name:    ZINC000132775118
##########                DOCK_Rotatable_Bonds:                   5
##########                         Heavy_Atoms:                  27
##########                    Molecular_Weight:             376.499
##########                DOCK_Rotatable_Bonds:                   5
##########                       Formal_Charge:        -4.76837e-07
##########                     HBond_Acceptors:                   7
##########                        HBond_Donors:                   1
##########                         Heavy_Atoms:                  27
##########                          Grid_Score:          -27.081951
##########                     Grid_vdw_energy:          -26.928543
##########                      Grid_es_energy:           -0.153408
##########           Internal_energy_repulsive:           22.267122

@<TRIPOS>MOLECULE
ZINC000132775118
 59 62 1 0 0
SMALL
USER_CHARGES


@<TRIPOS>ATOM
      1 O1         -9.2505   -0.8711   60.8900 O.2     1  ZINC000132775118   -0.5200
      2 C2         -9.9913   -0.2504   60.1573 C.2     1  ZINC000132775118    0.5200
      3 C3        -11.4441   -0.6366   60.0515 C.3     1  ZINC000132775118    0.0300
      4 N4        -11.6710   -1.3467   58.7858 N.3     1  ZINC000132775118   -0.5100
      5 C5        -10.5709   -2.2795   58.5004 C.3     1  ZINC000132775118    0.0300
      6 C6        -10.9089   -3.1542   57.3277 C.2     1  ZINC000132775118    0.5300
      7 O7        -10.0129   -3.7698   56.7900 O.2     1  ZINC000132775118   -0.5500
      8 N8        -12.1524   -3.2881   56.8469 N.am    1  ZINC000132775118   -0.7200
      9 C9        -13.2740   -2.5340   57.3895 C.3     1  ZINC000132775118    0.1500
     10 H10       -13.4478   -1.6586   56.7636 H       1  ZINC000132775118    0.0800
     11 C11       -14.5485   -3.3740   57.4316 C.3     1  ZINC000132775118   -0.1300
     12 C12       -15.6980   -2.5044   57.9509 C.3     1  ZINC000132775118   -0.1200
     13 C13       -15.3674   -1.9821   59.3493 C.3     1  ZINC000132775118   -0.1200
     14 C14       -14.0721   -1.1649   59.3106 C.3     1  ZINC000132775118   -0.1200
     15 C15       -12.9467   -2.0714   58.8108 C.3     1  ZINC000132775118    0.0700
     16 H16       -12.8522   -2.9305   59.4747 H       1  ZINC000132775118    0.0600
     17 N17        -9.5163    0.7885   59.4420 N.am    1  ZINC000132775118   -0.6200
     18 C18        -8.1011    1.1733   59.5301 C.3     1  ZINC000132775118    0.1100
     19 C19        -7.5132    1.2177   58.1161 C.3     1  ZINC000132775118   -0.1200
     20 C20        -8.3633    2.1439   57.2435 C.3     1  ZINC000132775118   -0.1000
     21 C21        -7.7683    2.2167   55.8608 C.2     1  ZINC000132775118    0.5300
     22 O22        -8.0501    1.3750   55.0343 O.2     1  ZINC000132775118   -0.5300
     23 N23        -6.9231    3.2171   55.5427 N.am    1  ZINC000132775118   -0.6200
     24 C24        -6.2787    3.4114   54.2355 C.3     1  ZINC000132775118    0.1000
     25 C25        -5.3836    4.6635   54.3475 C.3     1  ZINC000132775118   -0.1300
     26 C26        -5.1350    4.7774   55.8747 C.3     1  ZINC000132775118   -0.1300
     27 C27        -6.4966    4.3015   56.4458 C.3     1  ZINC000132775118    0.1000
     28 C28        -9.7903    1.5978   57.1564 C.3     1  ZINC000132775118   -0.1200
     29 C29       -10.4026    1.5540   58.5549 C.3     1  ZINC000132775118    0.1200
     30 H30       -11.7089   -1.2866   60.8855 H       1  ZINC000132775118    0.0700
     31 H31       -12.0617    0.2612   60.0803 H       1  ZINC000132775118    0.1200
     32 H32        -9.6676   -1.7119   58.2766 H       1  ZINC000132775118    0.1300
     33 H33       -10.3938   -2.9046   59.3756 H       1  ZINC000132775118    0.0700
     34 H34       -12.3103   -3.9055   56.1155 H       1  ZINC000132775118    0.4000
     35 H35       -14.7844   -3.7302   56.4288 H       1  ZINC000132775118    0.0800
     36 H36       -14.4037   -4.2240   58.0983 H       1  ZINC000132775118    0.0700
     37 H37       -15.8477   -1.6615   57.2761 H       1  ZINC000132775118    0.0700
     38 H38       -16.6108   -3.0986   57.9931 H       1  ZINC000132775118    0.0700
     39 H39       -16.1830   -1.3509   59.7020 H       1  ZINC000132775118    0.0700
     40 H40       -15.2436   -2.8244   60.0301 H       1  ZINC000132775118    0.0600
     41 H41       -14.1961   -0.3158   58.6385 H       1  ZINC000132775118    0.0800
     42 H42       -13.8354   -0.8082   60.3129 H       1  ZINC000132775118    0.0700
     43 H43        -8.0180    2.1574   59.9914 H       1  ZINC000132775118    0.0800
     44 H44        -7.5596    0.4402   60.1281 H       1  ZINC000132775118    0.0900
     45 H45        -6.4914    1.5945   58.1587 H       1  ZINC000132775118    0.0800
     46 H46        -7.5141    0.2144   57.6902 H       1  ZINC000132775118    0.0800
     47 H47        -8.3824    3.1409   57.6835 H       1  ZINC000132775118    0.0900
     48 H48        -5.6701    2.5413   53.9893 H       1  ZINC000132775118    0.0700
     49 H49        -7.0369    3.5652   53.4677 H       1  ZINC000132775118    0.0700
     50 H50        -4.4448    4.5153   53.8139 H       1  ZINC000132775118    0.0800
     51 H51        -5.9053    5.5451   53.9749 H       1  ZINC000132775118    0.0800
     52 H52        -4.3245    4.1197   56.1888 H       1  ZINC000132775118    0.0800
     53 H53        -4.9322    5.8093   56.1617 H       1  ZINC000132775118    0.0900
     54 H54        -7.2188    5.1178   56.4347 H       1  ZINC000132775118    0.0700
     55 H55        -6.3703    3.9193   57.4587 H       1  ZINC000132775118    0.0800
     56 H56       -10.3891    2.2453   56.5158 H       1  ZINC000132775118    0.0800
     57 H57        -9.7698    0.5910   56.7394 H       1  ZINC000132775118    0.0800
     58 H58       -11.3805    1.0746   58.5107 H       1  ZINC000132775118    0.1000
     59 H59       -10.5078    2.5684   58.9396 H       1  ZINC000132775118    0.0700
@<TRIPOS>BOND
     1     1     2    2
     2     2     3    1
     3     2    17   am
     4     3     4    1
     5     3    30    1
     6     3    31    1
     7     4    15    1
     8     4     5    1
     9     5     6    1
    10     5    32    1
    11     5    33    1
    12     6     7    2
    13     6     8   am
    14     8     9    1
    15     8    34    1
    16     9    10    1
    17     9    15    1
    18     9    11    1
    19    11    12    1
    20    11    35    1
    21    11    36    1
    22    12    13    1
    23    12    37    1
    24    12    38    1
    25    13    14    1
    26    13    39    1
    27    13    40    1
    28    14    15    1
    29    14    41    1
    30    14    42    1
    31    15    16    1
    32    17    29    1
    33    17    18    1
    34    18    19    1
    35    18    43    1
    36    18    44    1
    37    19    20    1
    38    19    45    1
    39    19    46    1
    40    20    21    1
    41    20    28    1
    42    20    47    1
    43    21    22    2
    44    21    23   am
    45    23    27    1
    46    23    24    1
    47    24    25    1
    48    24    48    1
    49    24    49    1
    50    25    26    1
    51    25    50    1
    52    25    51    1
    53    26    27    1
    54    26    52    1
    55    26    53    1
    56    27    54    1
    57    27    55    1
    58    28    29    1
    59    28    56    1
    60    28    57    1
    61    29    58    1
    62    29    59    1
@<TRIPOS>SUBSTRUCTURE
     1 ZINC000132775118        1 TEMP              0 ****  ****    0 ROOT


##########                                Name:    ZINC000438893617
##########                DOCK_Rotatable_Bonds:                   5
##########                         Heavy_Atoms:                  29
##########                    Molecular_Weight:             412.596
##########                DOCK_Rotatable_Bonds:                   5
##########                       Formal_Charge:           0.0600001
##########                     HBond_Acceptors:                   5
##########                        HBond_Donors:                   0
##########                         Heavy_Atoms:                  29
##########                          Grid_Score:          -27.052614
##########                     Grid_vdw_energy:          -24.695032
##########                      Grid_es_energy:           -2.357581
##########           Internal_energy_repulsive:          169.222870

@<TRIPOS>MOLECULE
ZINC000438893617
 61 66 1 0 0
SMALL
USER_CHARGES


@<TRIPOS>ATOM
      1 C1         -4.9987    4.3064   52.6840 C.3     1  ZINC000438893617   -0.1000
      2 C2         -4.1050    3.8692   53.8157 C.2     1  ZINC000438893617   -0.0900
      3 C3         -4.5607    3.6678   55.0531 C.2     1  ZINC000438893617   -0.1600
      4 C4         -5.9923    3.8412   55.4907 C.3     1  ZINC000438893617   -0.0400
      5 H5         -6.6723    4.2276   54.7315 H       1  ZINC000438893617    0.1400
      6 C6         -6.2420    4.2588   56.9412 C.3     1  ZINC000438893617   -0.1400
      7 C7         -6.5526    2.8290   56.4917 C.3     1  ZINC000438893617   -0.1800
      8 H8         -5.8859    2.0377   56.8341 H       1  ZINC000438893617    0.1300
      9 C9         -8.0027    2.4425   56.3536 C.2     1  ZINC000438893617    0.5500
     10 O10        -8.4653    2.2050   55.2579 O.2     1  ZINC000438893617   -0.5300
     11 N11        -8.7855    2.3607   57.4477 N.am    1  ZINC000438893617   -0.6100
     12 C12       -10.2001    1.9807   57.3287 C.3     1  ZINC000438893617    0.0900
     13 C13       -10.4612    0.7729   58.2371 C.3     1  ZINC000438893617    0.1000
     14 N14        -9.9150    1.0614   59.5706 N.am    1  ZINC000438893617   -0.6100
     15 C15       -10.6975    0.9786   60.6649 C.2     1  ZINC000438893617    0.5300
     16 O16       -11.8635    0.6637   60.5542 O.2     1  ZINC000438893617   -0.5300
     17 C17       -10.1235    1.2774   62.0260 C.3     1  ZINC000438893617   -0.0700
     18 C18        -8.9443    0.3415   62.2988 C.3     1  ZINC000438893617   -0.1100
     19 C19        -8.3616    0.6449   63.6805 C.3     1  ZINC000438893617   -0.0800
     20 C20        -9.4387    0.4323   64.7462 C.3     1  ZINC000438893617   -0.1100
     21 C21       -10.6178    1.3682   64.4733 C.3     1  ZINC000438893617   -0.0800
     22 C22       -10.1373    2.8201   64.5166 C.3     1  ZINC000438893617   -0.1100
     23 C23        -9.0602    3.0327   63.4509 C.3     1  ZINC000438893617   -0.0900
     24 C24        -7.8809    2.0968   63.7239 C.3     1  ZINC000438893617   -0.1100
     25 C25        -9.6428    2.7293   62.0691 C.3     1  ZINC000438893617   -0.0900
     26 C26       -11.2006    1.0648   63.0916 C.3     1  ZINC000438893617   -0.1200
     27 C27        -8.5004    1.4414   59.6897 C.3     1  ZINC000438893617    0.0700
     28 C28        -8.2379    2.6438   58.7818 C.3     1  ZINC000438893617    0.1000
     29 S29        -3.2353    3.1682   56.0957 S.3     1  ZINC000438893617    0.1000
     30 C30        -2.1033    3.2637   54.7530 C.2     1  ZINC000438893617   -0.2100
     31 C31        -2.7499    3.6406   53.6488 C.2     1  ZINC000438893617   -0.1300
     32 H32        -5.4077    3.4284   52.1840 H       1  ZINC000438893617    0.0700
     33 H33        -5.8142    4.9128   53.0783 H       1  ZINC000438893617    0.0700
     34 H34        -4.4207    4.8943   51.9709 H       1  ZINC000438893617    0.0700
     35 H35        -5.3709    4.4081   57.5790 H       1  ZINC000438893617    0.1100
     36 H36        -7.0867    4.9197   57.1364 H       1  ZINC000438893617    0.1100
     37 H37       -10.8301    2.8144   57.6385 H       1  ZINC000438893617    0.0800
     38 H38       -10.4220    1.7157   56.2950 H       1  ZINC000438893617    0.1000
     39 H39       -11.5342    0.5963   58.3116 H       1  ZINC000438893617    0.1100
     40 H40        -9.9708   -0.1085   57.8238 H       1  ZINC000438893617    0.0700
     41 H41        -9.2868   -0.6928   62.2681 H       1  ZINC000438893617    0.0800
     42 H42        -8.1770    0.4930   61.5396 H       1  ZINC000438893617    0.0700
     43 H43        -7.5215   -0.0219   63.8750 H       1  ZINC000438893617    0.0800
     44 H44        -9.7812   -0.6021   64.7154 H       1  ZINC000438893617    0.0600
     45 H45        -9.0235    0.6484   65.7306 H       1  ZINC000438893617    0.0700
     46 H46       -11.3852    1.2167   65.2325 H       1  ZINC000438893617    0.0800
     47 H47       -10.9773    3.4869   64.3222 H       1  ZINC000438893617    0.0600
     48 H48        -9.7221    3.0363   65.5010 H       1  ZINC000438893617    0.0700
     49 H49        -8.7177    4.0671   63.4817 H       1  ZINC000438893617    0.0700
     50 H50        -7.4658    2.3129   64.7082 H       1  ZINC000438893617    0.0700
     51 H51        -7.1136    2.2483   62.9647 H       1  ZINC000438893617    0.0600
     52 H52        -8.8755    2.8808   61.3100 H       1  ZINC000438893617    0.0700
     53 H53       -10.4830    3.3961   61.8747 H       1  ZINC000438893617    0.0700
     54 H54       -12.0407    1.7316   62.8971 H       1  ZINC000438893617    0.0700
     55 H55       -11.5430    0.0305   63.0608 H       1  ZINC000438893617    0.0800
     56 H56        -8.2785    1.7064   60.7234 H       1  ZINC000438893617    0.1300
     57 H57        -7.8704    0.6076   59.3798 H       1  ZINC000438893617    0.0800
     58 H58        -7.1646    2.8192   58.7084 H       1  ZINC000438893617    0.1100
     59 H59        -8.7280    3.5264   59.1928 H       1  ZINC000438893617    0.0700
     60 H60        -1.0472    3.0461   54.8124 H       1  ZINC000438893617    0.1700
     61 H61        -2.2525    3.7657   52.6984 H       1  ZINC000438893617    0.1400
@<TRIPOS>BOND
     1     1     2    1
     2     1    32    1
     3     1    33    1
     4     1    34    1
     5     2    31    1
     6     2     3    2
     7     3     4    1
     8     3    29    1
     9     4     5    1
    10     4     7    1
    11     4     6    1
    12     6     7    1
    13     6    35    1
    14     6    36    1
    15     7     8    1
    16     7     9    1
    17     9    10    2
    18     9    11   am
    19    11    28    1
    20    11    12    1
    21    12    13    1
    22    12    37    1
    23    12    38    1
    24    13    14    1
    25    13    39    1
    26    13    40    1
    27    14    15   am
    28    14    27    1
    29    15    16    2
    30    15    17    1
    31    17    25    1
    32    17    26    1
    33    17    18    1
    34    18    19    1
    35    18    41    1
    36    18    42    1
    37    19    24    1
    38    19    20    1
    39    19    43    1
    40    20    21    1
    41    20    44    1
    42    20    45    1
    43    21    22    1
    44    21    26    1
    45    21    46    1
    46    22    23    1
    47    22    47    1
    48    22    48    1
    49    23    24    1
    50    23    25    1
    51    23    49    1
    52    24    50    1
    53    24    51    1
    54    25    52    1
    55    25    53    1
    56    26    54    1
    57    26    55    1
    58    27    28    1
    59    27    56    1
    60    27    57    1
    61    28    58    1
    62    28    59    1
    63    29    30    1
    64    30    31    2
    65    30    60    1
    66    31    61    1
@<TRIPOS>SUBSTRUCTURE
     1 ZINC000438893617        1 TEMP              0 ****  ****    0 ROOT


##########                                Name:    ZINC000866034032
##########                DOCK_Rotatable_Bonds:                   4
##########                         Heavy_Atoms:                  23
##########                    Molecular_Weight:             383.242
##########                DOCK_Rotatable_Bonds:                   4
##########                       Formal_Charge:           0.0199999
##########                     HBond_Acceptors:                   6
##########                        HBond_Donors:                   1
##########                         Heavy_Atoms:                  23
##########                          Grid_Score:          -27.042349
##########                     Grid_vdw_energy:          -26.615492
##########                      Grid_es_energy:           -0.426856
##########           Internal_energy_repulsive:           13.896684

@<TRIPOS>MOLECULE
ZINC000866034032
 42 44 1 0 0
SMALL
USER_CHARGES


@<TRIPOS>ATOM
      1 C1         -7.0593    2.2882   56.6649 C.3     1  ZINC000866034032   -0.1300
      2 C2         -6.9874    3.0675   55.3501 C.3     1  ZINC000866034032   -0.0800
      3 C3         -5.8667    4.1091   55.3391 C.3     1  ZINC000866034032   -0.1300
      4 C4         -7.0055    2.1699   54.1032 C.3     1  ZINC000866034032    0.1400
      5 H5         -6.6473    1.1576   54.2903 H       1  ZINC000866034032    0.1100
      6 N6         -6.3799    2.7856   52.9303 N.am    1  ZINC000866034032   -0.7000
      7 C7         -5.8026    2.0114   51.9902 C.2     1  ZINC000866034032    0.5100
      8 O8         -5.7997    0.8052   52.1160 O.2     1  ZINC000866034032   -0.5300
      9 C9         -5.1606    2.6446   50.7827 C.3     1  ZINC000866034032   -0.1100
     10 C10        -3.6777    2.7799   51.0150 C.ar    1  ZINC000866034032   -0.0500
     11 C11        -3.2112    3.3702   52.1745 C.ar    1  ZINC000866034032   -0.0500
     12 C12        -1.8511    3.4949   52.3879 C.ar    1  ZINC000866034032   -0.0900
     13 C13        -0.9571    3.0285   51.4413 C.ar    1  ZINC000866034032   -0.0500
     14 Br14        0.9035    3.1983   51.7329 Br      1  ZINC000866034032    0.0200
     15 C15        -1.4246    2.4374   50.2812 C.ar    1  ZINC000866034032   -0.0200
     16 N16        -0.4684    1.9376   49.2680 N.pl3   1  ZINC000866034032    0.0200
     17 O17        -0.8801    1.4171   48.2466 O.2     1  ZINC000866034032   -0.1600
     18 O18         0.7301    2.0468   49.4555 O.2     1  ZINC000866034032   -0.1300
     19 C19        -2.7844    2.3084   50.0710 C.ar    1  ZINC000866034032   -0.0300
     20 C20        -8.5381    2.2913   54.1182 C.3     1  ZINC000866034032   -0.1500
     21 H21        -9.0817    1.4966   54.6289 H       1  ZINC000866034032    0.1200
     22 C22        -9.1197    2.7179   52.7519 C.3     1  ZINC000866034032   -0.1400
     23 C23        -9.2147    4.2565   52.8462 C.3     1  ZINC000866034032    0.0500
     24 O24        -8.2340    4.6266   53.8394 O.3     1  ZINC000866034032   -0.3600
     25 C25        -8.3441    3.6214   54.8906 C.3     1  ZINC000866034032    0.0600
     26 H26        -9.0710    3.8500   55.6700 H       1  ZINC000866034032    0.1000
     27 H27        -7.9601    1.6745   56.6747 H       1  ZINC000866034032    0.0600
     28 H28        -6.1821    1.6477   56.7560 H       1  ZINC000866034032    0.0700
     29 H29        -7.0870    2.9875   57.5006 H       1  ZINC000866034032    0.0700
     30 H30        -4.9014    3.6038   55.3117 H       1  ZINC000866034032    0.0600
     31 H31        -5.9696    4.7440   54.4591 H       1  ZINC000866034032    0.0600
     32 H32        -5.9309    4.7214   56.2385 H       1  ZINC000866034032    0.0600
     33 H33        -6.3812    3.7504   52.8302 H       1  ZINC000866034032    0.4100
     34 H34        -5.3355    2.0183   49.9078 H       1  ZINC000866034032    0.1100
     35 H35        -5.5938    3.6308   50.6160 H       1  ZINC000866034032    0.1200
     36 H36        -3.9094    3.7344   52.9137 H       1  ZINC000866034032    0.1500
     37 H37        -1.4866    3.9569   53.2936 H       1  ZINC000866034032    0.1600
     38 H38        -3.1494    1.8465   49.1656 H       1  ZINC000866034032    0.1600
     39 H39        -8.4494    2.4255   51.9437 H       1  ZINC000866034032    0.0800
     40 H40       -10.1083    2.2826   52.6054 H       1  ZINC000866034032    0.0800
     41 H41        -8.9723    4.7113   51.8857 H       1  ZINC000866034032    0.0900
     42 H42       -10.2122    4.5561   53.1678 H       1  ZINC000866034032    0.0600
@<TRIPOS>BOND
     1     1     2    1
     2     1    27    1
     3     1    28    1
     4     1    29    1
     5     2    25    1
     6     2     3    1
     7     2     4    1
     8     3    30    1
     9     3    31    1
    10     3    32    1
    11     4     5    1
    12     4     6    1
    13     4    20    1
    14     6     7   am
    15     6    33    1
    16     7     8    2
    17     7     9    1
    18     9    10    1
    19     9    34    1
    20     9    35    1
    21    10    19   ar
    22    10    11   ar
    23    11    12   ar
    24    11    36    1
    25    12    13   ar
    26    12    37    1
    27    13    14    1
    28    13    15   ar
    29    15    16    1
    30    15    19   ar
    31    16    17    2
    32    16    18    2
    33    19    38    1
    34    20    21    1
    35    20    25    1
    36    20    22    1
    37    22    23    1
    38    22    39    1
    39    22    40    1
    40    23    24    1
    41    23    41    1
    42    23    42    1
    43    24    25    1
    44    25    26    1
@<TRIPOS>SUBSTRUCTURE
     1 ZINC000866034032        1 TEMP              0 ****  ****    0 ROOT


##########                                Name:    ZINC001291841503
##########                DOCK_Rotatable_Bonds:                   7
##########                         Heavy_Atoms:                  28
##########                    Molecular_Weight:             397.544
##########                DOCK_Rotatable_Bonds:                   7
##########                       Formal_Charge:         -0.00999964
##########                     HBond_Acceptors:                   7
##########                        HBond_Donors:                   0
##########                         Heavy_Atoms:                  28
##########                          Grid_Score:          -26.993422
##########                     Grid_vdw_energy:          -25.979122
##########                      Grid_es_energy:           -1.014300
##########           Internal_energy_repulsive:           16.891769

@<TRIPOS>MOLECULE
ZINC001291841503
 55 58 1 0 0
SMALL
USER_CHARGES


@<TRIPOS>ATOM
      1 C1        -10.0677   -1.0116   54.8564 C.3     1  ZINC001291841503   -0.1500
      2 C2        -10.9238   -1.6330   55.9619 C.3     1  ZINC001291841503   -0.1100
      3 C3        -11.3302   -0.5491   56.9623 C.3     1  ZINC001291841503    0.0500
      4 H4        -11.8209    0.2680   56.4334 H       1  ZINC001291841503    0.0900
      5 C5        -12.2797   -1.1325   57.9768 C.2     1  ZINC001291841503    0.2000
      6 N6        -11.9659   -1.9271   58.9607 N.2     1  ZINC001291841503   -0.2700
      7 N7        -13.0180   -2.2344   59.6318 N.2     1  ZINC001291841503   -0.3100
      8 C8        -14.0682   -1.6474   59.1080 C.2     1  ZINC001291841503    0.3600
      9 N9        -15.3754   -1.7422   59.5585 N.3     1  ZINC001291841503   -0.4500
     10 C10       -15.8198   -3.1419   59.5939 C.3     1  ZINC001291841503    0.0200
     11 C11       -15.5255   -1.1087   60.8753 C.3     1  ZINC001291841503    0.0700
     12 H12       -14.8314   -1.5435   61.5945 H       1  ZINC001291841503    0.0800
     13 C13       -15.3267    0.4283   60.7752 C.3     1  ZINC001291841503   -0.1400
     14 C14       -16.1941    0.9151   61.9633 C.3     1  ZINC001291841503    0.0500
     15 O15       -17.3238    0.0284   61.9911 O.3     1  ZINC001291841503   -0.3800
     16 C16       -16.9809   -1.2237   61.3776 C.3     1  ZINC001291841503    0.0600
     17 N17       -13.6292   -0.9214   58.0393 N.pl3   1  ZINC001291841503   -0.4700
     18 C18       -14.4376   -0.0949   57.1394 C.3     1  ZINC001291841503    0.1900
     19 C19       -14.8850   -0.9231   55.9626 C.2     1  ZINC001291841503   -0.2700
     20 C20       -14.4137   -0.8356   54.7151 C.2     1  ZINC001291841503    0.0800
     21 N21       -14.9690   -1.6719   53.8613 N.2     1  ZINC001291841503   -0.4800
     22 C22       -15.8824   -2.4599   54.3191 C.2     1  ZINC001291841503    0.0500
     23 C23       -16.6299   -3.4811   53.5010 C.3     1  ZINC001291841503   -0.0800
     24 S24       -16.1165   -2.1829   55.9899 S.3     1  ZINC001291841503    0.1800
     25 C25       -10.1030   -0.0279   57.6644 C.ar    1  ZINC001291841503   -0.0900
     26 C26        -9.2529   -0.9042   58.3127 C.ar    1  ZINC001291841503   -0.0900
     27 C27        -8.1271   -0.4260   58.9568 C.ar    1  ZINC001291841503   -0.1200
     28 C28        -7.8511    0.9284   58.9521 C.ar    1  ZINC001291841503   -0.1200
     29 C29        -8.7006    1.8047   58.3030 C.ar    1  ZINC001291841503   -0.1200
     30 C30        -9.8242    1.3260   57.6553 C.ar    1  ZINC001291841503   -0.1100
     31 H31       -10.6414   -0.2400   54.3431 H       1  ZINC001291841503    0.0500
     32 H32        -9.1738   -0.5683   55.2951 H       1  ZINC001291841503    0.0500
     33 H33        -9.7781   -1.7838   54.1437 H       1  ZINC001291841503    0.0600
     34 H34       -11.8178   -2.0762   55.5233 H       1  ZINC001291841503    0.0800
     35 H35       -10.3501   -2.4046   56.4753 H       1  ZINC001291841503    0.0800
     36 H36       -15.2371   -3.6896   60.3347 H       1  ZINC001291841503    0.0500
     37 H37       -16.8758   -3.1812   59.8609 H       1  ZINC001291841503    0.0900
     38 H38       -15.6762   -3.5937   58.6124 H       1  ZINC001291841503    0.0700
     39 H39       -14.2804    0.6992   60.9157 H       1  ZINC001291841503    0.0900
     40 H40       -15.7063    0.8126   59.8284 H       1  ZINC001291841503    0.0800
     41 H41       -15.6335    0.8430   62.8953 H       1  ZINC001291841503    0.0700
     42 H42       -16.5224    1.9411   61.7967 H       1  ZINC001291841503    0.0900
     43 H43       -17.6455   -1.4173   60.5357 H       1  ZINC001291841503    0.0800
     44 H44       -17.0635   -2.0285   62.1081 H       1  ZINC001291841503    0.0700
     45 H45       -15.3111    0.2775   57.6746 H       1  ZINC001291841503    0.1100
     46 H46       -13.8420    0.7468   56.7859 H       1  ZINC001291841503    0.1100
     47 H47       -13.6411   -0.1369   54.4300 H       1  ZINC001291841503    0.1700
     48 H48       -16.0930   -4.4295   53.5250 H       1  ZINC001291841503    0.0900
     49 H49       -17.6286   -3.6184   53.9155 H       1  ZINC001291841503    0.0800
     50 H50       -16.7087   -3.1343   52.4706 H       1  ZINC001291841503    0.0900
     51 H51        -9.4686   -1.9625   58.3163 H       1  ZINC001291841503    0.1300
     52 H52        -7.4634   -1.1107   59.4638 H       1  ZINC001291841503    0.1200
     53 H53        -6.9719    1.3021   59.4558 H       1  ZINC001291841503    0.1200
     54 H54        -8.4851    2.8630   58.2996 H       1  ZINC001291841503    0.1200
     55 H55       -10.4878    2.0107   57.1482 H       1  ZINC001291841503    0.1200
@<TRIPOS>BOND
     1     1     2    1
     2     1    31    1
     3     1    32    1
     4     1    33    1
     5     2     3    1
     6     2    34    1
     7     2    35    1
     8     3     4    1
     9     3     5    1
    10     3    25    1
    11     5    17    1
    12     5     6    2
    13     6     7    1
    14     7     8    2
    15     8     9    1
    16     8    17    1
    17     9    10    1
    18     9    11    1
    19    10    36    1
    20    10    37    1
    21    10    38    1
    22    11    12    1
    23    11    16    1
    24    11    13    1
    25    13    14    1
    26    13    39    1
    27    13    40    1
    28    14    15    1
    29    14    41    1
    30    14    42    1
    31    15    16    1
    32    16    43    1
    33    16    44    1
    34    17    18    1
    35    18    19    1
    36    18    45    1
    37    18    46    1
    38    19    24    1
    39    19    20    2
    40    20    21    1
    41    20    47    1
    42    21    22    2
    43    22    23    1
    44    22    24    1
    45    23    48    1
    46    23    49    1
    47    23    50    1
    48    25    30   ar
    49    25    26   ar
    50    26    27   ar
    51    26    51    1
    52    27    28   ar
    53    27    52    1
    54    28    29   ar
    55    28    53    1
    56    29    30   ar
    57    29    54    1
    58    30    55    1
@<TRIPOS>SUBSTRUCTURE
     1 ZINC001291841503        1 TEMP              0 ****  ****    0 ROOT


##########                                Name:    ZINC000534890536
##########                DOCK_Rotatable_Bonds:                   6
##########                         Heavy_Atoms:                  30
##########                    Molecular_Weight:             411.476
##########                DOCK_Rotatable_Bonds:                   6
##########                       Formal_Charge:          0.00999957
##########                     HBond_Acceptors:                   7
##########                        HBond_Donors:                   1
##########                         Heavy_Atoms:                  30
##########                          Grid_Score:          -26.979708
##########                     Grid_vdw_energy:          -27.929064
##########                      Grid_es_energy:            0.949355
##########           Internal_energy_repulsive:           14.089617

@<TRIPOS>MOLECULE
ZINC000534890536
 56 59 1 0 0
SMALL
USER_CHARGES


@<TRIPOS>ATOM
      1 C1        -17.5503   -1.9616   59.6132 C.3     1  ZINC000534890536    0.0300
      2 O2        -16.7985   -3.0400   59.0529 O.3     1  ZINC000534890536   -0.3200
      3 C3        -15.6605   -2.7168   58.3841 C.ar    1  ZINC000534890536    0.1300
      4 C4        -14.8428   -3.7177   57.8798 C.ar    1  ZINC000534890536   -0.2100
      5 C5        -13.6868   -3.3865   57.1999 C.ar    1  ZINC000534890536   -0.0700
      6 C6        -13.3442   -2.0588   57.0221 C.ar    1  ZINC000534890536   -0.1100
      7 C7        -12.0822   -1.7004   56.2805 C.3     1  ZINC000534890536   -0.0600
      8 H8        -11.6051   -2.5912   55.8721 H       1  ZINC000534890536    0.0900
      9 C9        -11.1044   -0.9148   57.1938 C.3     1  ZINC000534890536   -0.1200
     10 C10       -10.2834   -0.0827   56.1863 C.3     1  ZINC000534890536    0.1000
     11 N11       -11.0854    0.0327   54.9595 N.am    1  ZINC000534890536   -0.6400
     12 C12       -10.7093    0.6684   53.8321 C.2     1  ZINC000534890536    0.7300
     13 O13       -11.4576    0.7017   52.8744 O.2     1  ZINC000534890536   -0.5700
     14 N14        -9.5037    1.2673   53.7663 N.am    1  ZINC000534890536   -0.7300
     15 C15        -9.0942    1.9567   52.5403 C.3     1  ZINC000534890536    0.1600
     16 H16        -9.5392    1.4587   51.6789 H       1  ZINC000534890536    0.1200
     17 C17        -9.5723    3.4100   52.5903 C.3     1  ZINC000534890536   -0.1300
     18 C18        -8.9055    4.1793   51.4436 C.3     1  ZINC000534890536   -0.1300
     19 C19        -7.4052    4.2729   51.7240 C.3     1  ZINC000534890536    0.1100
     20 N20        -6.8610    2.9567   52.0333 N.am    1  ZINC000534890536   -0.5600
     21 C21        -5.4772    2.7747   51.9169 C.ar    1  ZINC000534890536    0.1000
     22 C22        -4.9556    2.0809   50.8342 C.ar    1  ZINC000534890536   -0.0800
     23 C23        -3.5898    1.9033   50.7217 C.ar    1  ZINC000534890536   -0.1200
     24 C24        -2.7421    2.4151   51.6862 C.ar    1  ZINC000534890536   -0.0800
     25 C25        -3.2570    3.1072   52.7674 C.ar    1  ZINC000534890536   -0.1500
     26 C26        -4.6221    3.2937   52.8834 C.ar    1  ZINC000534890536    0.1100
     27 F27        -5.1254    3.9701   53.9391 F       1  ZINC000534890536   -0.1300
     28 C28        -7.5977    1.9168   52.4216 C.2     1  ZINC000534890536    0.5000
     29 O29        -7.0296    0.8797   52.6920 O.2     1  ZINC000534890536   -0.5100
     30 C30       -12.3688   -0.6635   55.1658 C.3     1  ZINC000534890536    0.1300
     31 C31       -14.1577   -1.0594   57.5234 C.ar    1  ZINC000534890536   -0.0700
     32 C32       -15.3174   -1.3853   58.1995 C.ar    1  ZINC000534890536   -0.1500
     33 H33       -16.9321   -1.4219   60.3307 H       1  ZINC000534890536    0.0600
     34 H34       -17.8604   -1.2833   58.8183 H       1  ZINC000534890536    0.0600
     35 H35       -18.4318   -2.3569   60.1180 H       1  ZINC000534890536    0.1000
     36 H36       -15.1096   -4.7549   58.0189 H       1  ZINC000534890536    0.1300
     37 H37       -13.0499   -4.1653   56.8070 H       1  ZINC000534890536    0.1300
     38 H38       -11.6520   -0.2642   57.8756 H       1  ZINC000534890536    0.0800
     39 H39       -10.4592   -1.5983   57.7459 H       1  ZINC000534890536    0.0900
     40 H40       -10.0881    0.9082   56.5962 H       1  ZINC000534890536    0.0700
     41 H41        -9.3425   -0.5879   55.9679 H       1  ZINC000534890536    0.0700
     42 H42        -8.9071    1.2419   54.5308 H       1  ZINC000534890536    0.4000
     43 H43       -10.6555    3.4443   52.4742 H       1  ZINC000534890536    0.0900
     44 H44        -9.2908    3.8563   53.5442 H       1  ZINC000534890536    0.0800
     45 H45        -9.0698    3.6509   50.5046 H       1  ZINC000534890536    0.0800
     46 H46        -9.3291    5.1817   51.3808 H       1  ZINC000534890536    0.1000
     47 H47        -6.8990    4.6749   50.8463 H       1  ZINC000534890536    0.0800
     48 H48        -7.2377    4.9399   52.5697 H       1  ZINC000534890536    0.0700
     49 H49        -5.6166    1.6800   50.0801 H       1  ZINC000534890536    0.1300
     50 H50        -3.1840    1.3634   49.8790 H       1  ZINC000534890536    0.1300
     51 H51        -1.6752    2.2738   51.5957 H       1  ZINC000534890536    0.1400
     52 H52        -2.5920    3.5058   53.5193 H       1  ZINC000534890536    0.1400
     53 H53       -12.6793   -1.1660   54.2496 H       1  ZINC000534890536    0.0800
     54 H54       -13.1345    0.0407   55.4913 H       1  ZINC000534890536    0.0700
     55 H55       -13.8880   -0.0231   57.3830 H       1  ZINC000534890536    0.1300
     56 H56       -15.9525   -0.6044   58.5908 H       1  ZINC000534890536    0.1300
@<TRIPOS>BOND
     1     1     2    1
     2     1    33    1
     3     1    34    1
     4     1    35    1
     5     2     3    1
     6     3    32   ar
     7     3     4   ar
     8     4     5   ar
     9     4    36    1
    10     5     6   ar
    11     5    37    1
    12     6     7    1
    13     6    31   ar
    14     7     8    1
    15     7    30    1
    16     7     9    1
    17     9    10    1
    18     9    38    1
    19     9    39    1
    20    10    11    1
    21    10    40    1
    22    10    41    1
    23    11    12   am
    24    11    30    1
    25    12    13    2
    26    12    14   am
    27    14    15    1
    28    14    42    1
    29    15    16    1
    30    15    28    1
    31    15    17    1
    32    17    18    1
    33    17    43    1
    34    17    44    1
    35    18    19    1
    36    18    45    1
    37    18    46    1
    38    19    20    1
    39    19    47    1
    40    19    48    1
    41    20    21    1
    42    20    28   am
    43    21    26   ar
    44    21    22   ar
    45    22    23   ar
    46    22    49    1
    47    23    24   ar
    48    23    50    1
    49    24    25   ar
    50    24    51    1
    51    25    26   ar
    52    25    52    1
    53    26    27    1
    54    28    29    2
    55    30    53    1
    56    30    54    1
    57    31    32   ar
    58    31    55    1
    59    32    56    1
@<TRIPOS>SUBSTRUCTURE
     1 ZINC000534890536        1 TEMP              0 ****  ****    0 ROOT


##########                                Name:    ZINC000543429378
##########                DOCK_Rotatable_Bonds:                   6
##########                         Heavy_Atoms:                  29
##########                    Molecular_Weight:             406.408
##########                DOCK_Rotatable_Bonds:                   6
##########                       Formal_Charge:           0.0100003
##########                     HBond_Acceptors:                   9
##########                        HBond_Donors:                   1
##########                         Heavy_Atoms:                  29
##########                          Grid_Score:          -26.938326
##########                     Grid_vdw_energy:          -26.929136
##########                      Grid_es_energy:           -0.009190
##########           Internal_energy_repulsive:           45.440186

@<TRIPOS>MOLECULE
ZINC000543429378
 50 53 1 0 0
SMALL
USER_CHARGES


@<TRIPOS>ATOM
      1 O1        -10.7468   -2.6550   55.9084 O.2     1  ZINC000543429378   -0.5100
      2 C2        -11.8677   -2.3050   56.2117 C.2     1  ZINC000543429378    0.5200
      3 N3        -12.3586   -1.1390   55.7470 N.am    1  ZINC000543429378   -0.6600
      4 C4        -11.5729   -0.3294   54.9192 C.ar    1  ZINC000543429378    0.1900
      5 C5        -11.9899   -0.0464   53.6251 C.ar    1  ZINC000543429378   -0.1600
      6 C6        -11.2143    0.7534   52.8079 C.ar    1  ZINC000543429378   -0.0600
      7 C7        -10.0224    1.2731   53.2753 C.ar    1  ZINC000543429378   -0.2100
      8 C8         -9.6008    0.9936   54.5679 C.ar    1  ZINC000543429378    0.1300
      9 O9         -8.4283    1.5054   55.0263 O.3     1  ZINC000543429378   -0.3100
     10 C10        -7.6985    2.3527   54.1366 C.3     1  ZINC000543429378    0.6000
     11 F11        -8.4850    3.4582   53.7952 F       1  ZINC000543429378   -0.1600
     12 F12        -6.5273    2.7899   54.7647 F       1  ZINC000543429378   -0.1300
     13 F13        -7.3687    1.6398   52.9791 F       1  ZINC000543429378   -0.1600
     14 C14       -10.3788    0.1964   55.3924 C.ar    1  ZINC000543429378   -0.1300
     15 C15       -12.7139   -3.1769   57.1032 C.3     1  ZINC000543429378    0.0700
     16 H16       -12.4238   -4.2208   56.9853 H       1  ZINC000543429378    0.1200
     17 C17       -14.2152   -3.0009   56.7453 C.3     1  ZINC000543429378   -0.1200
     18 C18       -14.8778   -3.0498   58.1307 C.3     1  ZINC000543429378   -0.1000
     19 H19       -14.9590   -4.0754   58.4904 H       1  ZINC000543429378    0.0900
     20 C20       -16.2104   -2.3282   58.2377 C.3     1  ZINC000543429378   -0.1100
     21 C21       -16.6417   -2.3820   59.7120 C.3     1  ZINC000543429378   -0.1200
     22 C22       -15.5969   -1.7455   60.6238 C.3     1  ZINC000543429378   -0.1100
     23 C23       -14.2123   -2.3828   60.4199 C.3     1  ZINC000543429378   -0.0900
     24 C24       -13.8437   -2.2421   58.9614 C.3     1  ZINC000543429378    0.0700
     25 H25       -13.9192   -1.1942   58.6710 H       1  ZINC000543429378    0.0900
     26 N26       -12.5494   -2.7624   58.5211 N.3     1  ZINC000543429378   -0.4300
     27 C27       -11.5627   -1.7983   58.6340 C.ar    1  ZINC000543429378    0.5000
     28 N28       -10.2956   -2.1764   58.7165 N.ar    1  ZINC000543429378   -0.5300
     29 C29        -9.3283   -1.2805   58.8248 C.ar    1  ZINC000543429378    0.1800
     30 C30        -9.6542    0.0664   58.8516 C.ar    1  ZINC000543429378   -0.2500
     31 C31       -10.9896    0.4269   58.7632 C.ar    1  ZINC000543429378    0.1800
     32 N32       -11.9074   -0.5191   58.6516 N.ar    1  ZINC000543429378   -0.5300
     33 H33       -13.2565   -0.8611   55.9864 H       1  ZINC000543429378    0.4200
     34 H34       -12.9207   -0.4520   53.2571 H       1  ZINC000543429378    0.1400
     35 H35       -11.5400    0.9724   51.8018 H       1  ZINC000543429378    0.1400
     36 H36        -9.4180    1.8974   52.6340 H       1  ZINC000543429378    0.1400
     37 H37       -10.0523   -0.0221   56.3985 H       1  ZINC000543429378    0.1500
     38 H38       -14.3908   -2.0394   56.2630 H       1  ZINC000543429378    0.0800
     39 H39       -14.5648   -3.8202   56.1170 H       1  ZINC000543429378    0.0900
     40 H40       -16.0970   -1.2911   57.9221 H       1  ZINC000543429378    0.0700
     41 H41       -16.9534   -2.8272   57.6156 H       1  ZINC000543429378    0.0700
     42 H42       -17.5860   -1.8498   59.8266 H       1  ZINC000543429378    0.0600
     43 H43       -16.7829   -3.4225   60.0042 H       1  ZINC000543429378    0.0600
     44 H44       -15.5346   -0.6795   60.4050 H       1  ZINC000543429378    0.0600
     45 H45       -15.9013   -1.8781   61.6620 H       1  ZINC000543429378    0.0700
     46 H46       -13.4747   -1.8727   61.0395 H       1  ZINC000543429378    0.0700
     47 H47       -14.2491   -3.4405   60.6808 H       1  ZINC000543429378    0.0700
     48 H48        -8.2973   -1.5949   58.8921 H       1  ZINC000543429378    0.1600
     49 H49        -8.8843    0.8186   58.9397 H       1  ZINC000543429378    0.1400
     50 H50       -11.2771    1.4678   58.7815 H       1  ZINC000543429378    0.1600
@<TRIPOS>BOND
     1     1     2    2
     2     2     3   am
     3     2    15    1
     4     3     4    1
     5     3    33    1
     6     4    14   ar
     7     4     5   ar
     8     5     6   ar
     9     5    34    1
    10     6     7   ar
    11     6    35    1
    12     7     8   ar
    13     7    36    1
    14     8     9    1
    15     8    14   ar
    16     9    10    1
    17    10    11    1
    18    10    12    1
    19    10    13    1
    20    14    37    1
    21    15    16    1
    22    15    26    1
    23    15    17    1
    24    17    18    1
    25    17    38    1
    26    17    39    1
    27    18    19    1
    28    18    24    1
    29    18    20    1
    30    20    21    1
    31    20    40    1
    32    20    41    1
    33    21    22    1
    34    21    42    1
    35    21    43    1
    36    22    23    1
    37    22    44    1
    38    22    45    1
    39    23    24    1
    40    23    46    1
    41    23    47    1
    42    24    25    1
    43    24    26    1
    44    26    27    1
    45    27    32   ar
    46    27    28   ar
    47    28    29   ar
    48    29    30   ar
    49    29    48    1
    50    30    31   ar
    51    30    49    1
    52    31    32   ar
    53    31    50    1
@<TRIPOS>SUBSTRUCTURE
     1 ZINC000543429378        1 TEMP              0 ****  ****    0 ROOT


##########                                Name:    ZINC000013551438
##########                DOCK_Rotatable_Bonds:                   5
##########                         Heavy_Atoms:                  27
##########                    Molecular_Weight:             377.467
##########                DOCK_Rotatable_Bonds:                   5
##########                       Formal_Charge:          -0.0300005
##########                     HBond_Acceptors:                   6
##########                        HBond_Donors:                   1
##########                         Heavy_Atoms:                  27
##########                          Grid_Score:          -26.928490
##########                     Grid_vdw_energy:          -27.991690
##########                      Grid_es_energy:            1.063200
##########           Internal_energy_repulsive:           17.503212

@<TRIPOS>MOLECULE
ZINC000013551438
 46 49 1 0 0
SMALL
USER_CHARGES


@<TRIPOS>ATOM
      1 C1          1.9940    2.3425   50.6695 C.3     1  <0>         0.0300
      2 O2          1.1155    3.4127   51.0231 O.3     1  <0>        -0.3200
      3 C3         -0.2132    3.1283   51.0775 C.ar    1  <0>         0.1000
      4 C4         -0.7977    2.3517   50.0810 C.ar    1  <0>        -0.1800
      5 C5         -2.1419    2.0549   50.1214 C.ar    1  <0>        -0.0900
      6 C6         -2.9285    2.5321   51.1648 C.ar    1  <0>         0.0700
      7 C7         -2.3402    3.3158   52.1720 C.ar    1  <0>        -0.0400
      8 C8         -0.9771    3.6064   52.1244 C.ar    1  <0>        -0.1100
      9 C9         -3.4229    3.6552   53.1089 C.2     1  <0>        -0.1200
     10 C10        -3.3030    4.4718   54.3416 C.2     1  <0>         0.1700
     11 C11        -3.7818    5.7264   54.4377 C.2     1  <0>        -0.3000
     12 S12        -3.4286    6.3220   56.0574 S.3     1  <0>         0.2500
     13 C13        -2.6749    4.8403   56.4540 C.2     1  <0>         0.2400
     14 N14        -2.1018    4.5474   57.6843 N.am    1  <0>        -0.6200
     15 C15        -1.5794    3.3259   57.9107 C.2     1  <0>         0.5600
     16 O16        -1.6087    2.4809   57.0373 O.2     1  <0>        -0.5000
     17 C17        -0.9710    3.0136   59.2209 C.ar    1  <0>        -0.1400
     18 C18        -0.3970    1.7612   59.4467 C.ar    1  <0>        -0.0800
     19 C19         0.1697    1.4763   60.6717 C.ar    1  <0>        -0.1300
     20 C20         0.1700    2.4287   61.6754 C.ar    1  <0>        -0.0800
     21 C21        -0.3976    3.6717   61.4586 C.ar    1  <0>        -0.1300
     22 C22        -0.9625    3.9716   60.2362 C.ar    1  <0>        -0.0500
     23 N23        -2.7193    4.0271   55.4472 N.2     1  <0>        -0.5000
     24 C24        -4.5502    3.0788   52.6282 C.2     1  <0>         0.1300
     25 C25        -5.9104    3.1652   53.2713 C.3     1  <0>        -0.0900
     26 N26        -4.2681    2.4070   51.4705 N.pl3   1  <0>        -0.4800
     27 C27        -5.2458    1.6642   50.6714 C.3     1  <0>         0.0800
     28 H28         1.7333    1.9707   49.6786 H       1  <0>         0.0500
     29 H29         3.0225    2.7037   50.6631 H       1  <0>         0.1000
     30 H30         1.8965    1.5368   51.3972 H       1  <0>         0.0500
     31 H31        -0.1915    1.9790   49.2685 H       1  <0>         0.1300
     32 H32        -2.5854    1.4517   49.3429 H       1  <0>         0.1200
     33 H33        -0.5229    4.2085   52.8974 H       1  <0>         0.1300
     34 H34        -4.2930    6.2720   53.6583 H       1  <0>         0.1800
     35 H35        -2.0773    5.2221   58.3808 H       1  <0>         0.4200
     36 H36        -0.3969    1.0169   58.6641 H       1  <0>         0.1300
     37 H37         0.6137    0.5077   60.8479 H       1  <0>         0.1300
     38 H38         0.6150    2.2005   62.6327 H       1  <0>         0.1300
     39 H39        -0.3944    4.4105   62.2464 H       1  <0>         0.1300
     40 H40        -1.4049    4.9424   60.0680 H       1  <0>         0.1400
     41 H41        -6.4749    3.9807   52.8192 H       1  <0>         0.0800
     42 H42        -6.4438    2.2267   53.1205 H       1  <0>         0.0700
     43 H43        -5.7962    3.3506   54.3393 H       1  <0>         0.0800
     44 H44        -5.6905    2.3293   49.9312 H       1  <0>         0.0700
     45 H45        -4.7479    0.8375   50.1646 H       1  <0>         0.0800
     46 H46        -6.0264    1.2731   51.3239 H       1  <0>         0.0800
@<TRIPOS>BOND
     1     1     2    1
     2     1    28    1
     3     1    29    1
     4     1    30    1
     5     2     3    1
     6     3     8   ar
     7     3     4   ar
     8     4     5   ar
     9     4    31    1
    10     5     6   ar
    11     5    32    1
    12     6    26    1
    13     6     7   ar
    14     7     8   ar
    15     7     9    1
    16     8    33    1
    17     9    10    1
    18     9    24    2
    19    10    23    1
    20    10    11    2
    21    11    12    1
    22    11    34    1
    23    12    13    1
    24    13    14    1
    25    13    23    2
    26    14    15   am
    27    14    35    1
    28    15    16    2
    29    15    17    1
    30    17    22   ar
    31    17    18   ar
    32    18    19   ar
    33    18    36    1
    34    19    20   ar
    35    19    37    1
    36    20    21   ar
    37    20    38    1
    38    21    22   ar
    39    21    39    1
    40    22    40    1
    41    24    25    1
    42    24    26    1
    43    25    41    1
    44    25    42    1
    45    25    43    1
    46    26    27    1
    47    27    44    1
    48    27    45    1
    49    27    46    1
@<TRIPOS>SUBSTRUCTURE
     1 <0>         1 TEMP              0 ****  ****    0 ROOT


##########                                Name:    ZINC000477669194
##########                DOCK_Rotatable_Bonds:                   6
##########                         Heavy_Atoms:                  26
##########                    Molecular_Weight:             387.483
##########                DOCK_Rotatable_Bonds:                   6
##########                       Formal_Charge:         4.47035e-07
##########                     HBond_Acceptors:                   8
##########                        HBond_Donors:                   2
##########                         Heavy_Atoms:                  26
##########                          Grid_Score:          -26.908501
##########                     Grid_vdw_energy:          -26.325121
##########                      Grid_es_energy:           -0.583379
##########           Internal_energy_repulsive:           15.543929

@<TRIPOS>MOLECULE
ZINC000477669194
 43 45 1 0 0
SMALL
USER_CHARGES


@<TRIPOS>ATOM
      1 C1          1.7633    3.5171   55.2533 C.3     1  ZINC000477669194   -0.0800
      2 C2          0.4476    3.2036   55.9178 C.2     1  ZINC000477669194    0.0500
      3 N3         -0.7040    3.5807   55.4811 N.2     1  ZINC000477669194   -0.4900
      4 C4         -1.7659    3.2186   56.1864 C.2     1  ZINC000477669194    0.1200
      5 C5         -3.1517    3.5812   55.8024 C.ar    1  ZINC000477669194   -0.0600
      6 C6         -4.0350    4.0776   56.7575 C.ar    1  ZINC000477669194   -0.0800
      7 C7         -5.3243    4.4138   56.3951 C.ar    1  ZINC000477669194   -0.1400
      8 C8         -5.7434    4.2597   55.0856 C.ar    1  ZINC000477669194   -0.0900
      9 C9         -4.8758    3.7676   54.1287 C.ar    1  ZINC000477669194   -0.1300
     10 C10        -3.5762    3.4316   54.4768 C.ar    1  ZINC000477669194    0.1800
     11 N11        -2.6973    2.9344   53.5105 N.am    1  ZINC000477669194   -0.6500
     12 C12        -2.4068    3.6719   52.4206 C.2     1  ZINC000477669194    0.5600
     13 O13        -2.9093    4.7701   52.2778 O.2     1  ZINC000477669194   -0.5200
     14 C14        -1.4794    3.1472   51.4008 C.ar    1  ZINC000477669194   -0.1500
     15 C15        -1.9188    2.1916   50.4798 C.ar    1  ZINC000477669194   -0.0600
     16 C16        -1.0513    1.7043   49.5292 C.ar    1  ZINC000477669194   -0.1400
     17 C17         0.2627    2.1620   49.4841 C.ar    1  ZINC000477669194    0.1700
     18 N18         1.1369    1.6675   48.5223 N.am    1  ZINC000477669194   -1.0600
     19 S19         2.7209    2.1508   48.5166 S.o2    1  ZINC000477669194    2.6100
     20 C20         3.4591    1.2658   47.1157 C.3     1  ZINC000477669194   -0.6700
     21 O21         2.6609    3.5452   48.2499 O.2     1  ZINC000477669194   -0.9400
     22 O22         3.2408    1.6616   49.7453 O.2     1  ZINC000477669194   -0.9500
     23 C23         0.7033    3.1139   50.3995 C.ar    1  ZINC000477669194   -0.1600
     24 C24        -0.1607    3.6087   51.3494 C.ar    1  ZINC000477669194   -0.0300
     25 C25        -1.4752    2.4909   57.2838 C.2     1  ZINC000477669194   -0.2600
     26 S26         0.2739    2.2913   57.3527 S.3     1  ZINC000477669194    0.1500
     27 H27         2.5759    3.0739   55.8289 H       1  ZINC000477669194    0.0800
     28 H28         1.7673    3.1067   54.2436 H       1  ZINC000477669194    0.0900
     29 H29         1.8984    4.5978   55.2067 H       1  ZINC000477669194    0.0900
     30 H30        -3.7121    4.1990   57.7808 H       1  ZINC000477669194    0.1300
     31 H31        -6.0086    4.7983   57.1370 H       1  ZINC000477669194    0.1300
     32 H32        -6.7533    4.5248   54.8098 H       1  ZINC000477669194    0.1300
     33 H33        -5.2089    3.6489   53.1083 H       1  ZINC000477669194    0.1500
     34 H34        -2.2965    2.0584   53.6243 H       1  ZINC000477669194    0.4200
     35 H35        -2.9379    1.8358   50.5145 H       1  ZINC000477669194    0.1300
     36 H36        -1.3900    0.9657   48.8178 H       1  ZINC000477669194    0.1400
     37 H37         0.8190    1.0397   47.8548 H       1  ZINC000477669194    0.4300
     38 H38         3.0055    1.6125   46.1872 H       1  ZINC000477669194    0.1300
     39 H39         4.5318    1.4572   47.0896 H       1  ZINC000477669194    0.1400
     40 H40         3.2835    0.1960   47.2286 H       1  ZINC000477669194    0.1300
     41 H41         1.7232    3.4673   50.3616 H       1  ZINC000477669194    0.1700
     42 H42         0.1816    4.3473   52.0590 H       1  ZINC000477669194    0.1500
     43 H43        -2.1884    2.0970   57.9927 H       1  ZINC000477669194    0.1800
@<TRIPOS>BOND
     1     1     2    1
     2     1    27    1
     3     1    28    1
     4     1    29    1
     5     2    26    1
     6     2     3    2
     7     3     4    1
     8     4     5    1
     9     4    25    2
    10     5    10   ar
    11     5     6   ar
    12     6     7   ar
    13     6    30    1
    14     7     8   ar
    15     7    31    1
    16     8     9   ar
    17     8    32    1
    18     9    10   ar
    19     9    33    1
    20    10    11    1
    21    11    12   am
    22    11    34    1
    23    12    13    2
    24    12    14    1
    25    14    24   ar
    26    14    15   ar
    27    15    16   ar
    28    15    35    1
    29    16    17   ar
    30    16    36    1
    31    17    18    1
    32    17    23   ar
    33    18    19   am
    34    18    37    1
    35    19    20    1
    36    19    21    2
    37    19    22    2
    38    20    38    1
    39    20    39    1
    40    20    40    1
    41    23    24   ar
    42    23    41    1
    43    24    42    1
    44    25    26    1
    45    25    43    1
@<TRIPOS>SUBSTRUCTURE
     1 ZINC000477669194        1 TEMP              0 ****  ****    0 ROOT


##########                                Name:    ZINC000279974681
##########                DOCK_Rotatable_Bonds:                   4
##########                         Heavy_Atoms:                  23
##########                    Molecular_Weight:              338.79
##########                DOCK_Rotatable_Bonds:                   4
##########                       Formal_Charge:           0.0100008
##########                     HBond_Acceptors:                   7
##########                        HBond_Donors:                   1
##########                         Heavy_Atoms:                  23
##########                          Grid_Score:          -26.880642
##########                     Grid_vdw_energy:          -26.518103
##########                      Grid_es_energy:           -0.362539
##########           Internal_energy_repulsive:           11.939837

@<TRIPOS>MOLECULE
ZINC000279974681
 42 45 1 0 0
SMALL
USER_CHARGES


@<TRIPOS>ATOM
      1 C1          4.1279    1.6473   51.1419 C.3     1  ZINC000279974681   -0.1400
      2 C2          3.0278    1.9794   50.1319 C.3     1  ZINC000279974681    0.0700
      3 H3          2.8430    3.0537   50.1350 H       1  ZINC000279974681    0.0600
      4 C4          1.7417    1.2375   50.5132 C.3     1  ZINC000279974681    0.1000
      5 N5          0.7614    1.4219   49.4313 N.am    1  ZINC000279974681   -0.6300
      6 C6         -0.4926    1.8397   49.6951 C.2     1  ZINC000279974681    0.7100
      7 O7         -1.2882    1.9860   48.7873 O.2     1  ZINC000279974681   -0.5600
      8 N8         -0.8647    2.0951   50.9651 N.am    1  ZINC000279974681   -0.6700
      9 C9         -2.1691    2.5297   51.2393 C.ar    1  ZINC000279974681    0.2000
     10 C10        -3.2552    1.7905   50.7928 C.ar    1  ZINC000279974681   -0.1200
     11 C11        -4.5437    2.2199   51.0644 C.ar    1  ZINC000279974681    0.0700
     12 C12        -4.7471    3.3936   51.7856 C.ar    1  ZINC000279974681    0.0200
     13 C13        -3.6603    4.1297   52.2296 C.ar    1  ZINC000279974681   -0.0700
     14 C14        -2.3744    3.6975   51.9633 C.ar    1  ZINC000279974681   -0.0700
     15 Cl15       -1.0154    4.6225   52.5211 Cl      1  ZINC000279974681   -0.0500
     16 O16        -6.0915    3.5964   51.9184 O.3     1  ZINC000279974681   -0.3000
     17 C17        -6.7069    2.7571   50.9235 C.3     1  ZINC000279974681    0.2100
     18 O18        -5.7598    1.6873   50.7454 O.3     1  ZINC000279974681   -0.3000
     19 C19         1.1907    1.1373   48.0529 C.3     1  ZINC000279974681    0.0800
     20 C20         2.5037    1.8841   47.7915 C.3     1  ZINC000279974681    0.1100
     21 H21         2.3167    2.9580   47.7852 H       1  ZINC000279974681    0.0700
     22 C22         3.0739    1.4567   46.4376 C.3     1  ZINC000279974681   -0.1600
     23 C23         4.5393    1.0185   46.3947 C.3     1  ZINC000279974681   -0.1700
     24 C24         3.4254   -0.0210   46.2539 C.3     1  ZINC000279974681   -0.1600
     25 O25         3.4393    1.5694   48.8256 O.3     1  ZINC000279974681   -0.3600
     26 H26         5.0426    2.1738   50.8693 H       1  ZINC000279974681    0.0700
     27 H27         3.8128    1.9585   52.1379 H       1  ZINC000279974681    0.0800
     28 H28         4.3122    0.5730   51.1384 H       1  ZINC000279974681    0.0700
     29 H29         1.9539    0.1758   50.6390 H       1  ZINC000279974681    0.0800
     30 H30         1.3441    1.6457   51.4423 H       1  ZINC000279974681    0.1100
     31 H31        -0.2299    1.9783   51.6892 H       1  ZINC000279974681    0.4100
     32 H32        -3.0957    0.8806   50.2332 H       1  ZINC000279974681    0.1800
     33 H33        -3.8181    5.0402   52.7887 H       1  ZINC000279974681    0.1500
     34 H34        -7.6591    2.3695   51.2854 H       1  ZINC000279974681    0.1400
     35 H35        -6.8447    3.3057   49.9917 H       1  ZINC000279974681    0.0900
     36 H36         1.3475    0.0655   47.9311 H       1  ZINC000279974681    0.0900
     37 H37         0.4283    1.4792   47.3529 H       1  ZINC000279974681    0.0900
     38 H38         2.6829    1.9923   45.5726 H       1  ZINC000279974681    0.1100
     39 H39         5.1126    1.2659   45.5013 H       1  ZINC000279974681    0.1000
     40 H40         5.0970    1.0347   47.3310 H       1  ZINC000279974681    0.1000
     41 H41         3.2505   -0.6886   47.0976 H       1  ZINC000279974681    0.1000
     42 H42         3.2660   -0.4574   45.2679 H       1  ZINC000279974681    0.1000
@<TRIPOS>BOND
     1     1     2    1
     2     1    26    1
     3     1    27    1
     4     1    28    1
     5     2     3    1
     6     2    25    1
     7     2     4    1
     8     4     5    1
     9     4    29    1
    10     4    30    1
    11     5     6   am
    12     5    19    1
    13     6     7    2
    14     6     8   am
    15     8     9    1
    16     8    31    1
    17     9    14   ar
    18     9    10   ar
    19    10    11   ar
    20    10    32    1
    21    11    18    1
    22    11    12   ar
    23    12    13   ar
    24    12    16    1
    25    13    14   ar
    26    13    33    1
    27    14    15    1
    28    16    17    1
    29    17    18    1
    30    17    34    1
    31    17    35    1
    32    19    20    1
    33    19    36    1
    34    19    37    1
    35    20    21    1
    36    20    22    1
    37    20    25    1
    38    22    24    1
    39    22    23    1
    40    22    38    1
    41    23    24    1
    42    23    39    1
    43    23    40    1
    44    24    41    1
    45    24    42    1
@<TRIPOS>SUBSTRUCTURE
     1 ZINC000279974681        1 TEMP              0 ****  ****    0 ROOT


##########                                Name:    ZINC000430767928
##########                DOCK_Rotatable_Bonds:                   4
##########                         Heavy_Atoms:                  25
##########                    Molecular_Weight:             358.505
##########                DOCK_Rotatable_Bonds:                   4
##########                       Formal_Charge:          -0.0100002
##########                     HBond_Acceptors:                   5
##########                        HBond_Donors:                   0
##########                         Heavy_Atoms:                  25
##########                          Grid_Score:          -26.866241
##########                     Grid_vdw_energy:          -26.727776
##########                      Grid_es_energy:           -0.138466
##########           Internal_energy_repulsive:           23.374147

@<TRIPOS>MOLECULE
ZINC000430767928
 51 55 1 0 0
SMALL
USER_CHARGES


@<TRIPOS>ATOM
      1 O1         -4.1699    4.1146   51.0905 O.2     1  ZINC000430767928   -0.4600
      2 C2         -4.7095    4.2479   52.1679 C.2     1  ZINC000430767928    0.5300
      3 C3         -4.1936    5.0134   53.3625 C.3     1  ZINC000430767928    0.0400
      4 H4         -4.2236    6.0934   53.2177 H       1  ZINC000430767928    0.1400
      5 C5         -2.8047    4.5071   53.8032 C.3     1  ZINC000430767928   -0.1100
      6 C6         -2.8369    4.7411   55.3353 C.3     1  ZINC000430767928   -0.1000
      7 H7         -2.3521    5.6849   55.5850 H       1  ZINC000430767928    0.1000
      8 C8         -2.1530    3.5832   56.0649 C.3     1  ZINC000430767928   -0.0800
      9 C9         -0.7256    3.4207   55.5386 C.3     1  ZINC000430767928   -0.1100
     10 C10        -0.0417    2.2627   56.2684 C.3     1  ZINC000430767928   -0.1200
     11 C11        -0.0014    2.5584   57.7690 C.3     1  ZINC000430767928   -0.1200
     12 C12        -1.4287    2.7209   58.2953 C.3     1  ZINC000430767928   -0.1200
     13 C13        -2.1126    3.8789   57.5656 C.3     1  ZINC000430767928   -0.1200
     14 C14        -4.3371    4.7957   55.6967 C.3     1  ZINC000430767928    0.1600
     15 N15        -5.0893    4.5430   54.4563 N.am    1  ZINC000430767928   -0.6400
     16 C16        -6.1687    4.0439   53.8457 C.2     1  ZINC000430767928    0.7400
     17 O17        -7.2403    3.8644   54.3902 O.2     1  ZINC000430767928   -0.5100
     18 N18        -5.9042    3.7478   52.5543 N.am    1  ZINC000430767928   -0.5800
     19 C19        -6.7949    2.9759   51.6842 C.3     1  ZINC000430767928    0.2600
     20 H20        -7.5116    2.4259   52.2941 H       1  ZINC000430767928    0.1200
     21 C21        -7.5333    3.9125   50.7633 C.2     1  ZINC000430767928   -0.2100
     22 C22        -7.0143    5.0040   50.1989 C.2     1  ZINC000430767928   -0.1200
     23 C23        -7.8846    5.7113   49.3875 C.2     1  ZINC000430767928   -0.1400
     24 C24        -9.1106    5.1942   49.2931 C.2     1  ZINC000430767928   -0.2300
     25 S25        -9.2094    3.7298   50.2622 S.3     1  ZINC000430767928    0.1700
     26 C26        -5.9692    1.9905   50.8546 C.3     1  ZINC000430767928   -0.1700
     27 C27        -4.7397    1.3658   51.5174 C.3     1  ZINC000430767928   -0.1700
     28 C28        -5.9917    0.5199   51.2761 C.3     1  ZINC000430767928   -0.1600
     29 H29        -2.6882    3.4476   53.5754 H       1  ZINC000430767928    0.0800
     30 H30        -2.0127    5.0941   53.3381 H       1  ZINC000430767928    0.1000
     31 H31        -2.7114    2.6635   55.8908 H       1  ZINC000430767928    0.0700
     32 H32        -0.7544    3.2100   54.4695 H       1  ZINC000430767928    0.0600
     33 H33        -0.1672    4.3404   55.7129 H       1  ZINC000430767928    0.0700
     34 H34        -0.6002    1.3430   56.0941 H       1  ZINC000430767928    0.0600
     35 H35         0.9752    2.1470   55.8934 H       1  ZINC000430767928    0.0600
     36 H36         0.4858    1.7335   58.2888 H       1  ZINC000430767928    0.0600
     37 H37         0.5570    3.4781   57.9432 H       1  ZINC000430767928    0.0600
     38 H38        -1.9873    1.8013   58.1211 H       1  ZINC000430767928    0.0600
     39 H39        -1.4001    2.9316   59.3643 H       1  ZINC000430767928    0.0600
     40 H40        -1.5543    4.7986   57.7398 H       1  ZINC000430767928    0.0700
     41 H41        -3.1296    3.9946   57.9405 H       1  ZINC000430767928    0.0600
     42 H42        -4.5693    4.0350   56.4421 H       1  ZINC000430767928    0.0900
     43 H43        -4.5932    5.7838   56.0789 H       1  ZINC000430767928    0.0800
     44 H44        -5.9923    5.3126   50.3627 H       1  ZINC000430767928    0.1400
     45 H45        -7.5932    6.6135   48.8705 H       1  ZINC000430767928    0.1400
     46 H46        -9.9180    5.6093   48.7081 H       1  ZINC000430767928    0.1600
     47 H47        -5.9107    2.2075   49.7880 H       1  ZINC000430767928    0.1200
     48 H48        -3.8721    1.1718   50.8868 H       1  ZINC000430767928    0.1000
     49 H49        -4.5193    1.6567   52.5443 H       1  ZINC000430767928    0.1000
     50 H50        -6.5947    0.2544   52.1444 H       1  ZINC000430767928    0.1000
     51 H51        -5.9476   -0.2306   50.4868 H       1  ZINC000430767928    0.1000
@<TRIPOS>BOND
     1     1     2    2
     2     2    18   am
     3     2     3    1
     4     3     4    1
     5     3    15    1
     6     3     5    1
     7     5     6    1
     8     5    29    1
     9     5    30    1
    10     6     7    1
    11     6     8    1
    12     6    14    1
    13     8    13    1
    14     8     9    1
    15     8    31    1
    16     9    10    1
    17     9    32    1
    18     9    33    1
    19    10    11    1
    20    10    34    1
    21    10    35    1
    22    11    12    1
    23    11    36    1
    24    11    37    1
    25    12    13    1
    26    12    38    1
    27    12    39    1
    28    13    40    1
    29    13    41    1
    30    14    15    1
    31    14    42    1
    32    14    43    1
    33    15    16   am
    34    16    17    2
    35    16    18   am
    36    18    19    1
    37    19    20    1
    38    19    21    1
    39    19    26    1
    40    21    25    1
    41    21    22    2
    42    22    23    1
    43    22    44    1
    44    23    24    2
    45    23    45    1
    46    24    25    1
    47    24    46    1
    48    26    28    1
    49    26    27    1
    50    26    47    1
    51    27    28    1
    52    27    48    1
    53    27    49    1
    54    28    50    1
    55    28    51    1
@<TRIPOS>SUBSTRUCTURE
     1 ZINC000430767928        1 TEMP              0 ****  ****    0 ROOT


##########                                Name:    ZINC000546115054
##########                DOCK_Rotatable_Bonds:                  10
##########                         Heavy_Atoms:                  26
##########                    Molecular_Weight:             363.457
##########                DOCK_Rotatable_Bonds:                  10
##########                       Formal_Charge:        -4.39584e-07
##########                     HBond_Acceptors:                   7
##########                        HBond_Donors:                   2
##########                         Heavy_Atoms:                  26
##########                          Grid_Score:          -26.840696
##########                     Grid_vdw_energy:          -26.110867
##########                      Grid_es_energy:           -0.729829
##########           Internal_energy_repulsive:           27.742563

@<TRIPOS>MOLECULE
ZINC000546115054
 55 56 1 0 0
SMALL
USER_CHARGES


@<TRIPOS>ATOM
      1 C1         -9.2338    0.8241   53.7200 C.3     1  ZINC000546115054   -0.1500
      2 C2         -7.8709    1.4107   53.3462 C.3     1  ZINC000546115054    0.0600
      3 O3         -7.1550    1.7478   54.5362 O.3     1  ZINC000546115054   -0.3700
      4 C4         -6.9810    3.1526   54.7315 C.3     1  ZINC000546115054    0.0500
      5 H5         -7.8788    3.6793   54.4078 H       1  ZINC000546115054    0.0700
      6 C6         -5.7807    3.6380   53.9146 C.3     1  ZINC000546115054    0.0400
      7 O7         -5.5735    5.0310   54.1565 O.3     1  ZINC000546115054   -0.3700
      8 C8         -5.2846    5.3500   55.5192 C.3     1  ZINC000546115054    0.0600
      9 C9         -6.4649    4.9334   56.4005 C.3     1  ZINC000546115054   -0.1600
     10 C10        -6.7285    3.4357   56.2155 C.3     1  ZINC000546115054    0.1700
     11 H11        -5.8602    2.8685   56.5508 H       1  ZINC000546115054    0.1000
     12 N12        -7.9024    3.0441   56.9996 N.am    1  ZINC000546115054   -0.7300
     13 C13        -7.8178    2.0232   57.8754 C.2     1  ZINC000546115054    0.7200
     14 O14        -6.7676    1.4262   58.0136 O.2     1  ZINC000546115054   -0.5900
     15 N15        -8.8974    1.6640   58.5979 N.am    1  ZINC000546115054   -0.7200
     16 C16        -8.8059    0.5530   59.5486 C.3     1  ZINC000546115054    0.1600
     17 H17        -7.8058    0.5266   59.9813 H       1  ZINC000546115054    0.1200
     18 C18        -9.8380    0.7477   60.6612 C.3     1  ZINC000546115054   -0.1000
     19 C19        -9.1352    0.8117   61.9927 C.ar    1  ZINC000546115054   -0.0800
     20 C20        -8.3414    1.8999   62.3037 C.ar    1  ZINC000546115054   -0.1100
     21 C21        -7.6968    1.9584   63.5251 C.ar    1  ZINC000546115054   -0.1200
     22 C22        -7.8461    0.9292   64.4357 C.ar    1  ZINC000546115054   -0.1200
     23 C23        -8.6406   -0.1585   64.1251 C.ar    1  ZINC000546115054   -0.1200
     24 C24        -9.2888   -0.2152   62.9054 C.ar    1  ZINC000546115054   -0.1100
     25 C25        -9.0780   -0.7447   58.8324 C.2     1  ZINC000546115054    0.5000
     26 O26        -8.3052   -1.6727   58.9444 O.2     1  ZINC000546115054   -0.5200
     27 N27       -10.1800   -0.8740   58.0673 N.am    1  ZINC000546115054   -0.6200
     28 C28       -11.1125    0.2475   57.9306 C.3     1  ZINC000546115054    0.0800
     29 C29       -10.4453   -2.1362   57.3726 C.3     1  ZINC000546115054    0.0700
     30 H30        -9.7799    0.5670   52.8123 H       1  ZINC000546115054    0.0700
     31 H31        -9.0904   -0.0718   54.3239 H       1  ZINC000546115054    0.0600
     32 H32        -9.8018    1.5593   54.2898 H       1  ZINC000546115054    0.0600
     33 H33        -7.3028    0.6754   52.7763 H       1  ZINC000546115054    0.0500
     34 H34        -8.0143    2.3067   52.7423 H       1  ZINC000546115054    0.0500
     35 H35        -4.8912    3.0815   54.2097 H       1  ZINC000546115054    0.0600
     36 H36        -5.9743    3.4781   52.8538 H       1  ZINC000546115054    0.1000
     37 H37        -4.3885    4.8158   55.8354 H       1  ZINC000546115054    0.0600
     38 H38        -5.1207    6.4233   55.6145 H       1  ZINC000546115054    0.1000
     39 H39        -6.2286    5.1352   57.4452 H       1  ZINC000546115054    0.0900
     40 H40        -7.3521    5.4968   56.1114 H       1  ZINC000546115054    0.0800
     41 H41        -8.7405    3.5196   56.8884 H       1  ZINC000546115054    0.3900
     42 H42        -9.7348    2.1410   58.4885 H       1  ZINC000546115054    0.4000
     43 H43       -10.3827    1.6766   60.4929 H       1  ZINC000546115054    0.0900
     44 H44       -10.5367   -0.0889   60.6590 H       1  ZINC000546115054    0.1100
     45 H45        -8.2248    2.7039   61.5923 H       1  ZINC000546115054    0.1200
     46 H46        -7.0761    2.8083   63.7679 H       1  ZINC000546115054    0.1200
     47 H47        -7.3419    0.9747   65.3896 H       1  ZINC000546115054    0.1200
     48 H48        -8.7571   -0.9628   64.8364 H       1  ZINC000546115054    0.1200
     49 H49        -9.9095   -1.0651   62.6627 H       1  ZINC000546115054    0.1200
     50 H50       -10.8175    0.8638   57.0813 H       1  ZINC000546115054    0.0600
     51 H51       -12.1202   -0.1355   57.7690 H       1  ZINC000546115054    0.0700
     52 H52       -11.0937    0.8486   58.8396 H       1  ZINC000546115054    0.0800
     53 H53       -11.0374   -2.7874   58.0156 H       1  ZINC000546115054    0.0600
     54 H54       -10.9952   -1.9361   56.4530 H       1  ZINC000546115054    0.0800
     55 H55        -9.5008   -2.6242   57.1322 H       1  ZINC000546115054    0.0700
@<TRIPOS>BOND
     1     1     2    1
     2     1    30    1
     3     1    31    1
     4     1    32    1
     5     2     3    1
     6     2    33    1
     7     2    34    1
     8     3     4    1
     9     4     5    1
    10     4    10    1
    11     4     6    1
    12     6     7    1
    13     6    35    1
    14     6    36    1
    15     7     8    1
    16     8     9    1
    17     8    37    1
    18     8    38    1
    19     9    10    1
    20     9    39    1
    21     9    40    1
    22    10    11    1
    23    10    12    1
    24    12    13   am
    25    12    41    1
    26    13    14    2
    27    13    15   am
    28    15    16    1
    29    15    42    1
    30    16    17    1
    31    16    18    1
    32    16    25    1
    33    18    19    1
    34    18    43    1
    35    18    44    1
    36    19    24   ar
    37    19    20   ar
    38    20    21   ar
    39    20    45    1
    40    21    22   ar
    41    21    46    1
    42    22    23   ar
    43    22    47    1
    44    23    24   ar
    45    23    48    1
    46    24    49    1
    47    25    26    2
    48    25    27   am
    49    27    28    1
    50    27    29    1
    51    28    50    1
    52    28    51    1
    53    28    52    1
    54    29    53    1
    55    29    54    1
    56    29    55    1
@<TRIPOS>SUBSTRUCTURE
     1 ZINC000546115054        1 TEMP              0 ****  ****    0 ROOT


##########                                Name:    ZINC001271977984
##########                DOCK_Rotatable_Bonds:                   7
##########                         Heavy_Atoms:                  24
##########                    Molecular_Weight:             328.371
##########                DOCK_Rotatable_Bonds:                   7
##########                       Formal_Charge:           0.0200001
##########                     HBond_Acceptors:                   7
##########                        HBond_Donors:                   0
##########                         Heavy_Atoms:                  24
##########                          Grid_Score:          -26.825468
##########                     Grid_vdw_energy:          -26.742723
##########                      Grid_es_energy:           -0.082744
##########           Internal_energy_repulsive:           28.737747

@<TRIPOS>MOLECULE
ZINC001271977984
 44 46 1 0 0
SMALL
USER_CHARGES


@<TRIPOS>ATOM
      1 C1         -6.0875    2.6940   50.6859 C.3     1  ZINC001271977984   -0.1800
      2 C2         -5.4553    2.4229   52.0527 C.3     1  ZINC001271977984    0.1700
      3 H3         -5.6302    1.3845   52.3343 H       1  ZINC001271977984    0.1100
      4 C4         -3.9724    2.6809   51.9803 C.2     1  ZINC001271977984    0.2700
      5 N5         -3.2010    2.3091   51.0034 N.2     1  ZINC001271977984   -0.4700
      6 C6         -1.9288    2.7094   51.2726 C.ar    1  ZINC001271977984    0.0200
      7 C7         -0.7143    2.5880   50.5961 C.ar    1  ZINC001271977984   -0.0600
      8 C8          0.4313    3.1155   51.1492 C.ar    1  ZINC001271977984   -0.1200
      9 C9          0.3850    3.7659   52.3731 C.ar    1  ZINC001271977984   -0.0900
     10 C10        -0.8085    3.8930   53.0532 C.ar    1  ZINC001271977984   -0.0900
     11 C11        -1.9714    3.3684   52.5110 C.ar    1  ZINC001271977984    0.0100
     12 O12        -3.2608    3.3327   52.9133 O.3     1  ZINC001271977984   -0.2100
     13 N13        -6.0585    3.3106   53.0558 N.3     1  ZINC001271977984   -0.5300
     14 C14        -6.6420    4.5007   52.4227 C.3     1  ZINC001271977984    0.0000
     15 C15        -7.0608    2.5955   53.8570 C.3     1  ZINC001271977984    0.0400
     16 C16        -6.7751    2.8134   55.3441 C.3     1  ZINC001271977984    0.1200
     17 N17        -7.6994    2.0044   56.1427 N.am    1  ZINC001271977984   -0.6000
     18 C18        -8.9749    1.5687   55.5686 C.3     1  ZINC001271977984    0.0800
     19 C19        -7.3763    1.6611   57.4052 C.2     1  ZINC001271977984    0.6000
     20 O20        -6.3175    2.0228   57.8816 O.2     1  ZINC001271977984   -0.5300
     21 C21        -8.3063    0.8471   58.2087 C.2     1  ZINC001271977984   -0.0800
     22 C22        -8.6266    1.0404   59.5172 C.2     1  ZINC001271977984    0.0200
     23 O23        -9.5033    0.0801   59.8515 O.3     1  ZINC001271977984   -0.2000
     24 C24        -9.7172   -0.6864   58.7727 C.2     1  ZINC001271977984    0.1800
     25 N25        -9.0105   -0.2354   57.7800 N.2     1  ZINC001271977984   -0.4600
     26 H26        -7.1601    2.5074   50.7383 H       1  ZINC001271977984    0.0800
     27 H27        -5.9126    3.7323   50.4043 H       1  ZINC001271977984    0.0800
     28 H28        -5.6401    2.0353   49.9416 H       1  ZINC001271977984    0.0700
     29 H29        -0.6729    2.0821   49.6428 H       1  ZINC001271977984    0.1400
     30 H30         1.3719    3.0218   50.6266 H       1  ZINC001271977984    0.1400
     31 H31         1.2900    4.1756   52.7970 H       1  ZINC001271977984    0.1400
     32 H32        -0.8368    4.4008   54.0059 H       1  ZINC001271977984    0.1400
     33 H33        -7.4145    4.1950   51.7170 H       1  ZINC001271977984    0.0300
     34 H34        -7.0815    5.1406   53.1878 H       1  ZINC001271977984    0.0700
     35 H35        -5.8630    5.0496   51.8934 H       1  ZINC001271977984    0.1100
     36 H36        -8.0545    2.9748   53.6185 H       1  ZINC001271977984    0.0500
     37 H37        -7.0145    1.5302   53.6304 H       1  ZINC001271977984    0.0800
     38 H38        -5.7495    2.5171   55.5643 H       1  ZINC001271977984    0.0900
     39 H39        -6.9095    3.8669   55.5894 H       1  ZINC001271977984    0.0900
     40 H40        -8.8652    0.5641   55.1601 H       1  ZINC001271977984    0.0600
     41 H41        -9.7398    1.5637   56.3451 H       1  ZINC001271977984    0.0900
     42 H42        -9.2686    2.2542   54.7736 H       1  ZINC001271977984    0.0700
     43 H43        -8.2475    1.8179   60.1637 H       1  ZINC001271977984    0.2300
     44 H44       -10.3757   -1.5415   58.7339 H       1  ZINC001271977984    0.2600
@<TRIPOS>BOND
     1     1     2    1
     2     1    26    1
     3     1    27    1
     4     1    28    1
     5     2     3    1
     6     2     4    1
     7     2    13    1
     8     4    12    1
     9     4     5    2
    10     5     6    1
    11     6    11   ar
    12     6     7   ar
    13     7     8   ar
    14     7    29    1
    15     8     9   ar
    16     8    30    1
    17     9    10   ar
    18     9    31    1
    19    10    11   ar
    20    10    32    1
    21    11    12    1
    22    13    14    1
    23    13    15    1
    24    14    33    1
    25    14    34    1
    26    14    35    1
    27    15    16    1
    28    15    36    1
    29    15    37    1
    30    16    17    1
    31    16    38    1
    32    16    39    1
    33    17    18    1
    34    17    19   am
    35    18    40    1
    36    18    41    1
    37    18    42    1
    38    19    20    2
    39    19    21    1
    40    21    25    1
    41    21    22    2
    42    22    23    1
    43    22    43    1
    44    23    24    1
    45    24    25    2
    46    24    44    1
@<TRIPOS>SUBSTRUCTURE
     1 ZINC001271977984        1 TEMP              0 ****  ****    0 ROOT


##########                                Name:    ZINC000285228948
##########                DOCK_Rotatable_Bonds:                   8
##########                         Heavy_Atoms:                  23
##########                    Molecular_Weight:             339.822
##########                DOCK_Rotatable_Bonds:                   8
##########                       Formal_Charge:           0.0299997
##########                     HBond_Acceptors:                   7
##########                        HBond_Donors:                   3
##########                         Heavy_Atoms:                  23
##########                          Grid_Score:          -26.823727
##########                     Grid_vdw_energy:          -25.984694
##########                      Grid_es_energy:           -0.839033
##########           Internal_energy_repulsive:           24.136410

@<TRIPOS>MOLECULE
ZINC000285228948
 45 46 1 0 0
SMALL
USER_CHARGES


@<TRIPOS>ATOM
      1 C1         -0.5041    5.7778   55.7409 C.3     1  <0>        -0.1600
      2 C2         -0.4040    4.3327   55.2482 C.3     1  <0>         0.1800
      3 H3         -1.0919    3.7066   55.8164 H       1  <0>         0.1100
      4 C4          1.0049    3.8332   55.4399 C.ar    1  <0>        -0.0900
      5 C5          1.2261    2.5438   55.8867 C.ar    1  <0>        -0.1000
      6 C6          2.5179    2.0851   56.0627 C.ar    1  <0>        -0.1100
      7 C7          3.5898    2.9167   55.7917 C.ar    1  <0>        -0.0300
      8 Cl8         5.2128    2.3412   56.0120 Cl      1  <0>        -0.0700
      9 C9          3.3679    4.2071   55.3445 C.ar    1  <0>        -0.1100
     10 C10         2.0756    4.6627   55.1634 C.ar    1  <0>        -0.0900
     11 N11        -0.7529    4.2763   53.8265 N.am    1  <0>        -0.6100
     12 C12         0.0822    4.9649   52.8394 C.3     1  <0>         0.0600
     13 C13        -1.8423    3.5908   53.4267 C.2     1  <0>         0.5200
     14 O14        -2.5329    3.0193   54.2439 O.2     1  <0>        -0.5200
     15 C15        -2.2024    3.5341   51.9645 C.3     1  <0>         0.0300
     16 N16        -3.1700    2.4519   51.7400 N.3     1  <0>        -0.4900
     17 C17        -3.3027    2.1485   50.2921 C.3     1  <0>         0.0400
     18 C18        -4.6687    1.4225   50.2057 C.3     1  <0>        -0.1400
     19 C19        -5.5306    2.1834   51.2393 C.3     1  <0>         0.1100
     20 O20        -6.3234    3.1780   50.5879 O.3     1  <0>        -0.5400
     21 C21        -6.4139    1.2225   51.9926 C.2     1  <0>         0.5000
     22 N22        -7.1948    1.6700   52.9957 N.am    1  <0>        -0.8500
     23 O23        -6.4220    0.0465   51.6961 O.2     1  <0>        -0.5200
     24 C24        -4.5210    2.8460   52.1949 C.3     1  <0>         0.0600
     25 H25        -0.2444    5.8198   56.7987 H       1  <0>         0.0700
     26 H26         0.1839    6.4039   55.1728 H       1  <0>         0.0600
     27 H27        -1.5231    6.1391   55.6023 H       1  <0>         0.0700
     28 H28         0.3891    1.8949   56.0986 H       1  <0>         0.1400
     29 H29         2.6905    1.0779   56.4121 H       1  <0>         0.1300
     30 H30         4.2043    4.8568   55.1331 H       1  <0>         0.1400
     31 H31         1.9023    5.6699   54.8141 H       1  <0>         0.1300
     32 H32         0.8867    4.3030   52.5189 H       1  <0>         0.0600
     33 H33        -0.5261    5.2409   51.9780 H       1  <0>         0.0800
     34 H34         0.5073    5.8634   53.2866 H       1  <0>         0.0800
     35 H35        -2.6431    4.4841   51.6618 H       1  <0>         0.1100
     36 H36        -1.3042    3.3464   51.3762 H       1  <0>         0.0700
     37 H37        -3.3178    3.0675   49.7062 H       1  <0>         0.0400
     38 H38        -2.4971    1.4931   49.9609 H       1  <0>         0.1200
     39 H39        -5.0929    1.5162   49.2061 H       1  <0>         0.0900
     40 H40        -4.5667    0.3740   50.4858 H       1  <0>         0.0900
     41 H41        -6.5973    2.9380   49.6921 H       1  <0>         0.3800
     42 H42        -7.7625    1.0513   53.4814 H       1  <0>         0.4000
     43 H43        -7.1892    2.6108   53.2321 H       1  <0>         0.4100
     44 H44        -4.6874    2.4941   53.2131 H       1  <0>         0.1100
     45 H45        -4.6257    3.9301   52.1521 H       1  <0>         0.0700
@<TRIPOS>BOND
     1     1     2    1
     2     1    25    1
     3     1    26    1
     4     1    27    1
     5     2     3    1
     6     2     4    1
     7     2    11    1
     8     4    10   ar
     9     4     5   ar
    10     5     6   ar
    11     5    28    1
    12     6     7   ar
    13     6    29    1
    14     7     8    1
    15     7     9   ar
    16     9    10   ar
    17     9    30    1
    18    10    31    1
    19    11    12    1
    20    11    13   am
    21    12    32    1
    22    12    33    1
    23    12    34    1
    24    13    14    2
    25    13    15    1
    26    15    16    1
    27    15    35    1
    28    15    36    1
    29    16    24    1
    30    16    17    1
    31    17    18    1
    32    17    37    1
    33    17    38    1
    34    18    19    1
    35    18    39    1
    36    18    40    1
    37    19    20    1
    38    19    21    1
    39    19    24    1
    40    20    41    1
    41    21    22   am
    42    21    23    2
    43    22    42    1
    44    22    43    1
    45    24    44    1
    46    24    45    1
@<TRIPOS>SUBSTRUCTURE
     1 <0>         1 TEMP              0 ****  ****    0 ROOT


##########                                Name:    ZINC000443933644
##########                DOCK_Rotatable_Bonds:                   8
##########                         Heavy_Atoms:                  27
##########                    Molecular_Weight:             402.438
##########                DOCK_Rotatable_Bonds:                   8
##########                       Formal_Charge:          0.00999922
##########                     HBond_Acceptors:                   9
##########                        HBond_Donors:                   2
##########                         Heavy_Atoms:                  27
##########                          Grid_Score:          -26.807383
##########                     Grid_vdw_energy:          -25.835495
##########                      Grid_es_energy:           -0.971888
##########           Internal_energy_repulsive:           32.223377

@<TRIPOS>MOLECULE
ZINC000443933644
 48 49 1 0 0
SMALL
USER_CHARGES


@<TRIPOS>ATOM
      1 C1        -15.9399   -3.2973   59.8832 C.3     1  ZINC000443933644   -0.1500
      2 C2        -14.5981   -2.8454   59.3032 C.3     1  ZINC000443933644   -0.1400
      3 C3        -14.5579   -1.3172   59.2417 C.3     1  ZINC000443933644   -0.1000
      4 H4        -14.7355   -0.9087   60.2365 H       1  ZINC000443933644    0.1000
      5 C5        -15.6409   -0.8166   58.2840 C.3     1  ZINC000443933644   -0.1700
      6 C6        -13.1852   -0.8629   58.7415 C.3     1  ZINC000443933644    0.1200
      7 H7        -13.2441   -0.6319   57.6778 H       1  ZINC000443933644    0.1300
      8 N8        -12.2086   -1.9338   58.9552 N.am    1  ZINC000443933644   -1.1100
      9 S9        -11.4584   -2.6412   57.6593 S.o2    1  ZINC000443933644    2.6900
     10 O10       -10.4759   -3.5177   58.1938 O.2     1  ZINC000443933644   -0.9400
     11 O11       -12.4914   -3.0727   56.7841 O.2     1  ZINC000443933644   -0.9400
     12 C12       -10.5821   -1.3720   56.8073 C.ar    1  ZINC000443933644   -0.7000
     13 C13        -9.6050   -0.6190   57.4800 C.ar    1  ZINC000443933644    0.0500
     14 C14        -9.3057   -0.8571   58.8327 C.ar    1  ZINC000443933644   -0.1400
     15 C15        -8.3531   -0.1092   59.4536 C.ar    1  ZINC000443933644   -0.0800
     16 C16        -7.6675    0.8918   58.7680 C.ar    1  ZINC000443933644   -0.1200
     17 C17        -7.9315    1.1502   57.4575 C.ar    1  ZINC000443933644   -0.0900
     18 C18        -8.9074    0.3988   56.7840 C.ar    1  ZINC000443933644   -0.0900
     19 C19        -9.2079    0.6381   55.4263 C.ar    1  ZINC000443933644    0.2300
     20 N20        -8.5331    1.6363   54.7209 N.am    1  ZINC000443933644   -0.6700
     21 C21        -7.8974    1.3367   53.5710 C.2     1  ZINC000443933644    0.5100
     22 C22        -7.1691    2.4142   52.8096 C.3     1  ZINC000443933644   -0.1700
     23 O23        -7.9114    0.1997   53.1489 O.2     1  ZINC000443933644   -0.5100
     24 C24       -10.1732   -0.1225   54.8026 C.ar    1  ZINC000443933644   -0.1600
     25 C25       -10.8473   -1.1239   55.4950 C.ar    1  ZINC000443933644    0.0400
     26 C26       -12.7494    0.3856   59.5111 C.3     1  ZINC000443933644    0.4300
     27 F27       -13.8674    1.1837   59.7766 F       1  ZINC000443933644   -0.1700
     28 F28       -12.1511    0.0050   60.7170 F       1  ZINC000443933644   -0.1600
     29 F29       -11.8313    1.1099   58.7432 F       1  ZINC000443933644   -0.1700
     30 H30       -16.0573   -2.8900   60.8873 H       1  ZINC000443933644    0.0500
     31 H31       -16.7497   -2.9377   59.2483 H       1  ZINC000443933644    0.0600
     32 H32       -15.9686   -4.3860   59.9269 H       1  ZINC000443933644    0.0600
     33 H33       -13.7883   -3.2049   59.9380 H       1  ZINC000443933644    0.0700
     34 H34       -14.4807   -3.2526   58.2990 H       1  ZINC000443933644    0.0900
     35 H35       -16.6240   -1.0382   58.6994 H       1  ZINC000443933644    0.0700
     36 H36       -15.5377    0.2602   58.1494 H       1  ZINC000443933644    0.0600
     37 H37       -15.5329   -1.3151   57.3208 H       1  ZINC000443933644    0.0700
     38 H38       -12.0014   -2.2286   59.8558 H       1  ZINC000443933644    0.4300
     39 H39        -9.8294   -1.6293   59.3768 H       1  ZINC000443933644    0.1400
     40 H40        -8.1253   -0.2939   60.4930 H       1  ZINC000443933644    0.1300
     41 H41        -6.9160    1.4711   59.2837 H       1  ZINC000443933644    0.1300
     42 H42        -7.3929    1.9295   56.9389 H       1  ZINC000443933644    0.1300
     43 H43        -8.5218    2.5456   55.0587 H       1  ZINC000443933644    0.4200
     44 H44        -7.2665    3.3620   53.3389 H       1  ZINC000443933644    0.0800
     45 H45        -6.1146    2.1509   52.7267 H       1  ZINC000443933644    0.1000
     46 H46        -7.5994    2.5087   51.8127 H       1  ZINC000443933644    0.1000
     47 H47       -10.4060    0.0577   53.7635 H       1  ZINC000443933644    0.1500
     48 H48       -11.6000   -1.7074   54.9857 H       1  ZINC000443933644    0.1500
@<TRIPOS>BOND
     1     1     2    1
     2     1    30    1
     3     1    31    1
     4     1    32    1
     5     2     3    1
     6     2    33    1
     7     2    34    1
     8     3     4    1
     9     3     5    1
    10     3     6    1
    11     5    35    1
    12     5    36    1
    13     5    37    1
    14     6     7    1
    15     6     8    1
    16     6    26    1
    17     8     9   am
    18     8    38    1
    19     9    10    2
    20     9    11    2
    21     9    12    1
    22    12    25   ar
    23    12    13   ar
    24    13    18   ar
    25    13    14   ar
    26    14    15   ar
    27    14    39    1
    28    15    16   ar
    29    15    40    1
    30    16    17   ar
    31    16    41    1
    32    17    18   ar
    33    17    42    1
    34    18    19   ar
    35    19    20    1
    36    19    24   ar
    37    20    21   am
    38    20    43    1
    39    21    22    1
    40    21    23    2
    41    22    44    1
    42    22    45    1
    43    22    46    1
    44    24    25   ar
    45    24    47    1
    46    25    48    1
    47    26    27    1
    48    26    28    1
    49    26    29    1
@<TRIPOS>SUBSTRUCTURE
     1 ZINC000443933644        1 TEMP              0 ****  ****    0 ROOT


##########                                Name:    ZINC000467104849
##########                DOCK_Rotatable_Bonds:                   6
##########                         Heavy_Atoms:                  29
##########                    Molecular_Weight:             421.896
##########                DOCK_Rotatable_Bonds:                   6
##########                       Formal_Charge:           0.0200002
##########                     HBond_Acceptors:                   7
##########                        HBond_Donors:                   0
##########                         Heavy_Atoms:                  29
##########                          Grid_Score:          -26.752977
##########                     Grid_vdw_energy:          -26.671843
##########                      Grid_es_energy:           -0.081135
##########           Internal_energy_repulsive:           67.474747

@<TRIPOS>MOLECULE
ZINC000467104849
 54 56 1 0 0
SMALL
USER_CHARGES


@<TRIPOS>ATOM
      1 C1        -12.0527   -3.0261   57.8507 C.3     1  ZINC000467104849    0.0200
      2 O2        -10.8823   -2.2651   58.1563 O.3     1  ZINC000467104849   -0.3000
      3 C3        -10.8182   -1.0028   57.6543 C.ar    1  ZINC000467104849    0.1000
      4 C4        -11.8322   -0.5277   56.8389 C.ar    1  ZINC000467104849   -0.1700
      5 C5        -11.7656    0.7562   56.3295 C.ar    1  ZINC000467104849   -0.1200
      6 C6        -10.6885    1.5677   56.6315 C.ar    1  ZINC000467104849   -0.0800
      7 C7        -10.6206    2.9659   56.0733 C.3     1  ZINC000467104849   -0.0400
      8 C8        -11.5988    3.0963   54.9041 C.3     1  ZINC000467104849   -0.1300
      9 C9        -10.9947    3.9698   57.1655 C.3     1  ZINC000467104849   -0.1600
     10 C10        -9.2208    3.2467   55.5909 C.2     1  ZINC000467104849    0.5300
     11 O11        -8.6666    4.2787   55.9052 O.2     1  ZINC000467104849   -0.5300
     12 N12        -8.5848    2.3510   54.8101 N.am    1  ZINC000467104849   -0.6100
     13 C13        -9.2367    1.0922   54.4157 C.3     1  ZINC000467104849    0.0600
     14 C14        -9.1124    0.9389   52.8955 C.3     1  ZINC000467104849    0.0500
     15 O15        -7.7419    1.0897   52.5176 O.3     1  ZINC000467104849   -0.3700
     16 C16        -7.1923    2.3765   52.8104 C.3     1  ZINC000467104849    0.1300
     17 H17        -7.7853    3.1466   52.3169 H       1  ZINC000467104849    0.0800
     18 C18        -5.7706    2.4412   52.3149 C.ar    1  ZINC000467104849   -0.0900
     19 C19        -5.2950    1.4711   51.4528 C.ar    1  ZINC000467104849   -0.0500
     20 C20        -3.9911    1.5287   50.9973 C.ar    1  ZINC000467104849   -0.1400
     21 C21        -3.1611    2.5589   51.4042 C.ar    1  ZINC000467104849    0.1200
     22 F22        -1.8868    2.6164   50.9592 F       1  ZINC000467104849   -0.1200
     23 C23        -3.6387    3.5315   52.2682 C.ar    1  ZINC000467104849   -0.0800
     24 Cl24       -2.5996    4.8246   52.7800 Cl      1  ZINC000467104849   -0.0400
     25 C25        -4.9448    3.4740   52.7185 C.ar    1  ZINC000467104849   -0.0700
     26 C26        -7.2203    2.6059   54.3216 C.3     1  ZINC000467104849    0.0900
     27 C27        -9.6729    1.0998   57.4453 C.ar    1  ZINC000467104849   -0.1600
     28 C28        -9.7361   -0.1835   57.9632 C.ar    1  ZINC000467104849    0.1100
     29 O29        -8.7383   -0.6453   58.7635 O.3     1  ZINC000467104849   -0.3000
     30 C30        -7.6936    0.2724   59.0929 C.3     1  ZINC000467104849    0.0200
     31 H31       -11.9758   -4.0112   58.3109 H       1  ZINC000467104849    0.1000
     32 H32       -12.9321   -2.5116   58.2382 H       1  ZINC000467104849    0.0600
     33 H33       -12.1427   -3.1358   56.7700 H       1  ZINC000467104849    0.0600
     34 H34       -12.6747   -1.1601   56.6007 H       1  ZINC000467104849    0.1400
     35 H35       -12.5568    1.1254   55.6939 H       1  ZINC000467104849    0.1300
     36 H36       -12.6192    2.9805   55.2694 H       1  ZINC000467104849    0.0700
     37 H37       -11.4867    4.0782   54.4442 H       1  ZINC000467104849    0.0700
     38 H38       -11.3874    2.3229   54.1655 H       1  ZINC000467104849    0.0700
     39 H39       -10.2473    3.9395   57.9584 H       1  ZINC000467104849    0.0700
     40 H40       -11.0324    4.9726   56.7399 H       1  ZINC000467104849    0.0700
     41 H41       -11.9709    3.7126   57.5765 H       1  ZINC000467104849    0.0700
     42 H42        -8.7460    0.2539   54.9104 H       1  ZINC000467104849    0.0800
     43 H43       -10.2894    1.1200   54.6970 H       1  ZINC000467104849    0.1100
     44 H44        -9.4652   -0.0489   52.5991 H       1  ZINC000467104849    0.1100
     45 H45        -9.7124    1.7037   52.4022 H       1  ZINC000467104849    0.0600
     46 H46        -5.9425    0.6672   51.1352 H       1  ZINC000467104849    0.1500
     47 H47        -3.6201    0.7700   50.3242 H       1  ZINC000467104849    0.1500
     48 H48        -5.3177    4.2318   53.3915 H       1  ZINC000467104849    0.1500
     49 H49        -6.9361    3.6349   54.5420 H       1  ZINC000467104849    0.1100
     50 H50        -6.5276    1.9206   54.8099 H       1  ZINC000467104849    0.0800
     51 H51        -8.8324    1.7360   57.6798 H       1  ZINC000467104849    0.1400
     52 H52        -7.2040    0.6088   58.1789 H       1  ZINC000467104849    0.0600
     53 H53        -8.1154    1.1306   59.6161 H       1  ZINC000467104849    0.0600
     54 H54        -6.9645   -0.2221   59.7347 H       1  ZINC000467104849    0.1000
@<TRIPOS>BOND
     1     1     2    1
     2     1    31    1
     3     1    32    1
     4     1    33    1
     5     2     3    1
     6     3    28   ar
     7     3     4   ar
     8     4     5   ar
     9     4    34    1
    10     5     6   ar
    11     5    35    1
    12     6     7    1
    13     6    27   ar
    14     7     8    1
    15     7     9    1
    16     7    10    1
    17     8    36    1
    18     8    37    1
    19     8    38    1
    20     9    39    1
    21     9    40    1
    22     9    41    1
    23    10    11    2
    24    10    12   am
    25    12    26    1
    26    12    13    1
    27    13    14    1
    28    13    42    1
    29    13    43    1
    30    14    15    1
    31    14    44    1
    32    14    45    1
    33    15    16    1
    34    16    17    1
    35    16    18    1
    36    16    26    1
    37    18    25   ar
    38    18    19   ar
    39    19    20   ar
    40    19    46    1
    41    20    21   ar
    42    20    47    1
    43    21    22    1
    44    21    23   ar
    45    23    24    1
    46    23    25   ar
    47    25    48    1
    48    26    49    1
    49    26    50    1
    50    27    28   ar
    51    27    51    1
    52    28    29    1
    53    29    30    1
    54    30    52    1
    55    30    53    1
    56    30    54    1
@<TRIPOS>SUBSTRUCTURE
     1 ZINC000467104849        1 TEMP              0 ****  ****    0 ROOT


##########                                Name:    ZINC000426607143
##########                DOCK_Rotatable_Bonds:                   3
##########                         Heavy_Atoms:                  25
##########                    Molecular_Weight:             419.302
##########                DOCK_Rotatable_Bonds:                   3
##########                       Formal_Charge:         1.49012e-07
##########                     HBond_Acceptors:                   7
##########                        HBond_Donors:                   0
##########                         Heavy_Atoms:                  25
##########                          Grid_Score:          -26.727844
##########                     Grid_vdw_energy:          -25.968222
##########                      Grid_es_energy:           -0.759623
##########           Internal_energy_repulsive:           37.325195

@<TRIPOS>MOLECULE
ZINC000426607143
 40 43 1 0 0
SMALL
USER_CHARGES


@<TRIPOS>ATOM
      1 C1          0.7585    1.4857   49.2355 C.3     1  ZINC000426607143   -0.0900
      2 C2          1.0237    2.3470   50.4435 C.2     1  ZINC000426607143    0.1600
      3 N3          2.2310    2.5909   50.8525 N.2     1  ZINC000426607143   -0.4600
      4 S4          2.1147    3.5844   52.2213 S.3     1  ZINC000426607143    0.2900
      5 C5          0.3964    3.6671   52.2343 C.2     1  ZINC000426607143   -0.1300
      6 C6         -0.4737    4.4120   53.2137 C.3     1  ZINC000426607143   -0.0800
      7 C7         -0.0118    2.9218   51.1683 C.2     1  ZINC000426607143   -0.1200
      8 C8         -1.4406    2.7329   50.8184 C.2     1  ZINC000426607143    0.2500
      9 N9         -1.9095    2.0279   49.8211 N.2     1  ZINC000426607143   -0.3700
     10 O10        -3.1214    2.0759   49.8105 O.3     1  ZINC000426607143    0.0900
     11 C11        -3.5588    2.8327   50.8217 C.2     1  ZINC000426607143    0.2000
     12 C12        -4.9964    3.1401   51.1530 C.3     1  ZINC000426607143   -0.0300
     13 H13        -5.5136    3.5311   50.2769 H       1  ZINC000426607143    0.1600
     14 C14        -5.7115    1.8762   51.6843 C.3     1  ZINC000426607143   -0.1200
     15 C15        -6.6448    2.4718   52.7617 C.3     1  ZINC000426607143    0.1000
     16 N16        -6.0030    3.7208   53.1886 N.am    1  ZINC000426607143   -0.5800
     17 C17        -6.3152    4.4059   54.3684 C.ar    1  ZINC000426607143    0.1700
     18 C18        -6.1158    3.7971   55.5999 C.ar    1  ZINC000426607143   -0.1000
     19 C19        -6.4250    4.4759   56.7629 C.ar    1  ZINC000426607143   -0.1000
     20 C20        -6.9331    5.7603   56.7015 C.ar    1  ZINC000426607143   -0.1000
     21 C21        -7.1331    6.3702   55.4765 C.ar    1  ZINC000426607143   -0.0900
     22 C22        -6.8203    5.6993   54.3099 C.ar    1  ZINC000426607143   -0.0800
     23 Br23       -7.0941    6.5338   52.6352 Br      1  ZINC000426607143   -0.0400
     24 C24        -5.0767    4.1248   52.2987 C.2     1  ZINC000426607143    0.5300
     25 O25        -4.4039    5.1285   52.4035 O.2     1  ZINC000426607143   -0.4900
     26 N26        -2.5034    3.2527   51.4739 N.2     1  ZINC000426607143   -0.4600
     27 H27         0.7350    2.1100   48.3423 H       1  ZINC000426607143    0.0900
     28 H28         1.5498    0.7424   49.1385 H       1  ZINC000426607143    0.0800
     29 H29        -0.2010    0.9820   49.3521 H       1  ZINC000426607143    0.1100
     30 H30         0.1548    4.9156   53.9482 H       1  ZINC000426607143    0.0800
     31 H31        -1.0715    5.1505   52.6798 H       1  ZINC000426607143    0.0900
     32 H32        -1.1336    3.7085   53.7214 H       1  ZINC000426607143    0.0900
     33 H33        -6.2862    1.3922   50.8947 H       1  ZINC000426607143    0.1100
     34 H34        -4.9979    1.1815   52.1273 H       1  ZINC000426607143    0.1000
     35 H35        -7.6272    2.6786   52.3371 H       1  ZINC000426607143    0.0900
     36 H36        -6.7339    1.7863   53.6043 H       1  ZINC000426607143    0.0900
     37 H37        -5.7197    2.7936   55.6490 H       1  ZINC000426607143    0.1400
     38 H38        -6.2700    4.0025   57.7210 H       1  ZINC000426607143    0.1400
     39 H39        -7.1745    6.2882   57.6122 H       1  ZINC000426607143    0.1400
     40 H40        -7.5302    7.3736   55.4320 H       1  ZINC000426607143    0.1400
@<TRIPOS>BOND
     1     1     2    1
     2     1    27    1
     3     1    28    1
     4     1    29    1
     5     2     7    1
     6     2     3    2
     7     3     4    1
     8     4     5    1
     9     5     6    1
    10     5     7    2
    11     6    30    1
    12     6    31    1
    13     6    32    1
    14     7     8    1
    15     8    26    1
    16     8     9    2
    17     9    10    1
    18    10    11    1
    19    11    12    1
    20    11    26    2
    21    12    13    1
    22    12    24    1
    23    12    14    1
    24    14    15    1
    25    14    33    1
    26    14    34    1
    27    15    16    1
    28    15    35    1
    29    15    36    1
    30    16    17    1
    31    16    24   am
    32    17    22   ar
    33    17    18   ar
    34    18    19   ar
    35    18    37    1
    36    19    20   ar
    37    19    38    1
    38    20    21   ar
    39    20    39    1
    40    21    22   ar
    41    21    40    1
    42    22    23    1
    43    24    25    2
@<TRIPOS>SUBSTRUCTURE
     1 ZINC000426607143        1 TEMP              0 ****  ****    0 ROOT


##########                                Name:    ZINC001110536231
##########                DOCK_Rotatable_Bonds:                   8
##########                         Heavy_Atoms:                  24
##########                    Molecular_Weight:             329.442
##########                DOCK_Rotatable_Bonds:                   8
##########                       Formal_Charge:          -0.0400001
##########                     HBond_Acceptors:                   5
##########                        HBond_Donors:                   1
##########                         Heavy_Atoms:                  24
##########                          Grid_Score:          -26.710682
##########                     Grid_vdw_energy:          -26.500088
##########                      Grid_es_energy:           -0.210595
##########           Internal_energy_repulsive:           27.346704

@<TRIPOS>MOLECULE
ZINC001110536231
 51 53 1 0 0
SMALL
USER_CHARGES


@<TRIPOS>ATOM
      1 C1        -16.3621   -2.1470   57.5106 C.3     1  ZINC001110536231   -0.1300
      2 C2        -15.8901   -2.9837   58.7014 C.3     1  ZINC001110536231   -0.1000
      3 C3        -14.7073   -2.3119   59.3501 C.2     1  ZINC001110536231   -0.0200
      4 C4        -14.9229   -1.3032   60.4489 C.3     1  ZINC001110536231   -0.1300
      5 C5        -13.4733   -2.6092   58.9530 C.2     1  ZINC001110536231   -0.2400
      6 C6        -12.3190   -1.9533   59.5864 C.2     1  ZINC001110536231    0.5400
      7 O7        -12.0615   -2.1709   60.7548 O.2     1  ZINC001110536231   -0.5300
      8 N8        -11.5466   -1.1112   58.8716 N.am    1  ZINC001110536231   -0.7300
      9 C9        -10.3959   -0.4593   59.5019 C.3     1  ZINC001110536231    0.1100
     10 H10       -10.3526   -0.7025   60.5635 H       1  ZINC001110536231    0.1000
     11 C11       -10.4577    1.0740   59.2959 C.3     1  ZINC001110536231   -0.1600
     12 C12        -9.1642    1.3850   58.4842 C.3     1  ZINC001110536231    0.0500
     13 H13        -9.1723    2.3213   57.9261 H       1  ZINC001110536231    0.1200
     14 C14        -7.9973    1.2196   59.5041 C.3     1  ZINC001110536231   -0.1200
     15 C15        -7.9256   -0.3110   59.7269 C.3     1  ZINC001110536231   -0.1100
     16 C16        -9.0729   -0.8733   58.7897 C.3     1  ZINC001110536231    0.0400
     17 H17        -8.9801   -1.9227   58.5100 H       1  ZINC001110536231    0.1200
     18 N18        -9.0317    0.1301   57.6611 N.3     1  ZINC001110536231   -0.4900
     19 C19       -10.1762   -0.0470   56.7573 C.3     1  ZINC001110536231    0.0600
     20 C20        -9.7317    0.1754   55.3346 C.ar    1  ZINC001110536231    0.0100
     21 C21       -10.5066   -0.2668   54.2715 C.ar    1  ZINC001110536231   -0.2100
     22 C22       -10.0703   -0.0464   52.9800 C.ar    1  ZINC001110536231    0.1400
     23 N23        -8.9307    0.5766   52.7481 N.ar    1  ZINC001110536231   -0.5400
     24 C24        -8.1649    1.0126   53.7347 C.ar    1  ZINC001110536231    0.3200
     25 O25        -7.0007    1.6489   53.4507 O.3     1  ZINC001110536231   -0.3100
     26 C26        -6.9394    2.3702   52.2186 C.3     1  ZINC001110536231    0.0400
     27 C27        -8.5439    0.8303   55.0583 C.ar    1  ZINC001110536231   -0.1700
     28 H28       -17.2176   -2.6328   57.0415 H       1  ZINC001110536231    0.0500
     29 H29       -16.6522   -1.1547   57.8560 H       1  ZINC001110536231    0.0700
     30 H30       -15.5528   -2.0572   56.7860 H       1  ZINC001110536231    0.0400
     31 H31       -16.6995   -3.0734   59.4261 H       1  ZINC001110536231    0.0900
     32 H32       -15.6000   -3.9760   58.3560 H       1  ZINC001110536231    0.0600
     33 H33       -14.9311   -1.8121   61.4128 H       1  ZINC001110536231    0.0800
     34 H34       -14.1167   -0.5697   60.4321 H       1  ZINC001110536231    0.0700
     35 H35       -15.8767   -0.7982   60.2965 H       1  ZINC001110536231    0.0700
     36 H36       -13.3189   -3.3320   58.1656 H       1  ZINC001110536231    0.1200
     37 H37       -11.7527   -0.9366   57.9400 H       1  ZINC001110536231    0.4000
     38 H38       -11.3444    1.3491   58.7249 H       1  ZINC001110536231    0.0700
     39 H39       -10.4421    1.5910   60.2554 H       1  ZINC001110536231    0.0800
     40 H40        -7.0632    1.5901   59.0818 H       1  ZINC001110536231    0.0700
     41 H41        -8.2279    1.7329   60.4375 H       1  ZINC001110536231    0.0700
     42 H42        -6.9559   -0.6991   59.4152 H       1  ZINC001110536231    0.0800
     43 H43        -8.1207   -0.5562   60.7709 H       1  ZINC001110536231    0.0700
     44 H44       -10.5684   -1.0586   56.8615 H       1  ZINC001110536231    0.0900
     45 H45       -10.9546    0.6725   57.0113 H       1  ZINC001110536231    0.0700
     46 H46       -11.4406   -0.7780   54.4523 H       1  ZINC001110536231    0.1300
     47 H47       -10.6694   -0.3887   52.1491 H       1  ZINC001110536231    0.1600
     48 H48        -5.9566    2.8302   52.1154 H       1  ZINC001110536231    0.1000
     49 H49        -7.1091    1.6853   51.3878 H       1  ZINC001110536231    0.0600
     50 H50        -7.7058    3.1453   52.2128 H       1  ZINC001110536231    0.0600
     51 H51        -7.9165    1.1878   55.8613 H       1  ZINC001110536231    0.1400
@<TRIPOS>BOND
     1     1     2    1
     2     1    28    1
     3     1    29    1
     4     1    30    1
     5     2     3    1
     6     2    31    1
     7     2    32    1
     8     3     4    1
     9     3     5    2
    10     4    33    1
    11     4    34    1
    12     4    35    1
    13     5     6    1
    14     5    36    1
    15     6     7    2
    16     6     8   am
    17     8     9    1
    18     8    37    1
    19     9    10    1
    20     9    16    1
    21     9    11    1
    22    11    12    1
    23    11    38    1
    24    11    39    1
    25    12    13    1
    26    12    18    1
    27    12    14    1
    28    14    15    1
    29    14    40    1
    30    14    41    1
    31    15    16    1
    32    15    42    1
    33    15    43    1
    34    16    17    1
    35    16    18    1
    36    18    19    1
    37    19    20    1
    38    19    44    1
    39    19    45    1
    40    20    27   ar
    41    20    21   ar
    42    21    22   ar
    43    21    46    1
    44    22    23   ar
    45    22    47    1
    46    23    24   ar
    47    24    25    1
    48    24    27   ar
    49    25    26    1
    50    26    48    1
    51    26    49    1
    52    26    50    1
    53    27    51    1
@<TRIPOS>SUBSTRUCTURE
     1 ZINC001110536231        1 TEMP              0 ****  ****    0 ROOT


##########                                Name:    ZINC000800038938
##########                DOCK_Rotatable_Bonds:                   6
##########                         Heavy_Atoms:                  25
##########                    Molecular_Weight:             386.274
##########                DOCK_Rotatable_Bonds:                   6
##########                       Formal_Charge:           0.0200003
##########                     HBond_Acceptors:                   7
##########                        HBond_Donors:                   0
##########                         Heavy_Atoms:                  25
##########                          Grid_Score:          -26.694262
##########                     Grid_vdw_energy:          -26.564526
##########                      Grid_es_energy:           -0.129736
##########           Internal_energy_repulsive:            8.585145

@<TRIPOS>MOLECULE
ZINC000800038938
 46 48 1 0 0
SMALL
USER_CHARGES


@<TRIPOS>ATOM
      1 C1        -10.0163   -1.6849   58.0508 C.3     1  ZINC000800038938    0.0300
      2 O2        -10.3341   -1.7285   56.6582 O.3     1  ZINC000800038938   -0.3800
      3 C3        -11.1066   -0.6157   56.2032 C.3     1  ZINC000800038938    0.0900
      4 H4        -11.9537   -0.4524   56.8694 H       1  ZINC000800038938    0.0700
      5 C5        -11.6060   -0.8714   54.7663 C.3     1  ZINC000800038938   -0.1400
      6 C6        -11.5265    0.5167   54.0838 C.3     1  ZINC000800038938   -0.1400
      7 C7        -10.2257    1.1143   54.6753 C.3     1  ZINC000800038938    0.0900
      8 H8         -9.3535    0.7223   54.1523 H       1  ZINC000800038938    0.0900
      9 O9        -10.2525    2.5641   54.6003 O.3     1  ZINC000800038938   -0.3500
     10 C10        -9.2587    3.1577   53.9205 C.2     1  ZINC000800038938    0.4500
     11 O11        -8.5077    3.9156   54.4874 O.2     1  ZINC000800038938   -0.4800
     12 C12        -9.0798    2.8787   52.4505 C.3     1  ZINC000800038938    0.1500
     13 H13        -9.4490    1.8805   52.2151 H       1  ZINC000800038938    0.1200
     14 C14        -9.8449    3.9306   51.6198 C.3     1  ZINC000800038938   -0.1200
     15 C15        -8.8916    4.1886   50.4230 C.3     1  ZINC000800038938   -0.1300
     16 C16        -7.5034    4.0685   51.0998 C.3     1  ZINC000800038938    0.0900
     17 N17        -7.6581    2.9838   52.0910 N.am    1  ZINC000800038938   -0.6000
     18 C18        -6.6615    2.2221   52.5839 C.2     1  ZINC000800038938    0.5800
     19 O19        -6.9061    1.3543   53.3993 O.2     1  ZINC000800038938   -0.4900
     20 C20        -5.2714    2.4419   52.1332 C.ar    1  ZINC000800038938   -0.1100
     21 C21        -4.5279    3.5057   52.6466 C.ar    1  ZINC000800038938   -0.0700
     22 C22        -3.2298    3.7054   52.2212 C.ar    1  ZINC000800038938   -0.0400
     23 Cl23       -2.3032    5.0277   52.8588 Cl      1  ZINC000800038938   -0.0500
     24 C24        -2.6650    2.8531   51.2871 C.ar    1  ZINC000800038938   -0.0700
     25 C25        -3.3960    1.7972   50.7739 C.ar    1  ZINC000800038938   -0.1000
     26 C26        -4.6936    1.5822   51.1954 C.ar    1  ZINC000800038938    0.0100
     27 Cl27       -5.6096    0.2563   50.5500 Cl      1  ZINC000800038938   -0.0300
     28 C28       -10.2293    0.6471   56.1466 C.3     1  ZINC000800038938   -0.1200
     29 H29        -9.4291   -2.5638   58.3171 H       1  ZINC000800038938    0.0900
     30 H30        -9.4401   -0.7846   58.2640 H       1  ZINC000800038938    0.0400
     31 H31       -10.9375   -1.6732   58.6334 H       1  ZINC000800038938    0.0400
     32 H32       -10.9567   -1.5843   54.2579 H       1  ZINC000800038938    0.0800
     33 H33       -12.6346   -1.2322   54.7784 H       1  ZINC000800038938    0.0800
     34 H34       -11.4460    0.4112   53.0019 H       1  ZINC000800038938    0.0800
     35 H35       -12.3885    1.1282   54.3503 H       1  ZINC000800038938    0.0800
     36 H36       -10.7981    3.5302   51.2742 H       1  ZINC000800038938    0.1000
     37 H37        -9.9951    4.8429   52.1969 H       1  ZINC000800038938    0.0900
     38 H38        -9.0177    3.4284   49.6521 H       1  ZINC000800038938    0.0900
     39 H39        -9.0411    5.1874   50.0128 H       1  ZINC000800038938    0.1000
     40 H40        -6.7445    3.8026   50.3640 H       1  ZINC000800038938    0.0900
     41 H41        -7.2410    5.0028   51.5961 H       1  ZINC000800038938    0.0800
     42 H42        -4.9672    4.1714   53.3748 H       1  ZINC000800038938    0.1500
     43 H43        -1.6491    3.0138   50.9578 H       1  ZINC000800038938    0.1500
     44 H44        -2.9496    1.1364   50.0455 H       1  ZINC000800038938    0.1500
     45 H45       -10.6505    1.4245   56.7842 H       1  ZINC000800038938    0.0900
     46 H46        -9.2142    0.4111   56.4659 H       1  ZINC000800038938    0.0900
@<TRIPOS>BOND
     1     1     2    1
     2     1    29    1
     3     1    30    1
     4     1    31    1
     5     2     3    1
     6     3     4    1
     7     3    28    1
     8     3     5    1
     9     5     6    1
    10     5    32    1
    11     5    33    1
    12     6     7    1
    13     6    34    1
    14     6    35    1
    15     7     8    1
    16     7     9    1
    17     7    28    1
    18     9    10    1
    19    10    11    2
    20    10    12    1
    21    12    13    1
    22    12    17    1
    23    12    14    1
    24    14    15    1
    25    14    36    1
    26    14    37    1
    27    15    16    1
    28    15    38    1
    29    15    39    1
    30    16    17    1
    31    16    40    1
    32    16    41    1
    33    17    18   am
    34    18    19    2
    35    18    20    1
    36    20    26   ar
    37    20    21   ar
    38    21    22   ar
    39    21    42    1
    40    22    23    1
    41    22    24   ar
    42    24    25   ar
    43    24    43    1
    44    25    26   ar
    45    25    44    1
    46    26    27    1
    47    28    45    1
    48    28    46    1
@<TRIPOS>SUBSTRUCTURE
     1 ZINC000800038938        1 TEMP              0 ****  ****    0 ROOT


##########                                Name:    ZINC000330515179
##########                DOCK_Rotatable_Bonds:                   4
##########                         Heavy_Atoms:                  21
##########                    Molecular_Weight:             378.287
##########                DOCK_Rotatable_Bonds:                   4
##########                       Formal_Charge:           0.0200002
##########                     HBond_Acceptors:                   6
##########                        HBond_Donors:                   0
##########                         Heavy_Atoms:                  21
##########                          Grid_Score:          -26.656054
##########                     Grid_vdw_energy:          -26.938610
##########                      Grid_es_energy:            0.282556
##########           Internal_energy_repulsive:            9.727276

@<TRIPOS>MOLECULE
ZINC000330515179
 41 42 1 0 0
SMALL
USER_CHARGES


@<TRIPOS>ATOM
      1 C1        -11.0787   -0.0143   53.8275 C.3     1  ZINC000330515179    0.0300
      2 O2        -10.1200   -0.5712   52.9258 O.3     1  ZINC000330515179   -0.3800
      3 C3         -8.7683   -0.4666   53.3773 C.3     1  ZINC000330515179    0.0700
      4 C4         -8.1993    0.8946   52.9723 C.3     1  ZINC000330515179    0.0800
      5 H5         -8.8271    1.3360   52.1982 H       1  ZINC000330515179    0.0800
      6 C6         -6.7747    0.7148   52.4352 C.3     1  ZINC000330515179    0.0900
      7 N7         -6.1844    2.0471   52.2301 N.am    1  ZINC000330515179   -1.0000
      8 S8         -5.4638    2.4483   50.7941 S.o2    1  ZINC000330515179    2.6900
      9 O9         -5.4353    1.2609   50.0141 O.2     1  ZINC000330515179   -0.9400
     10 O10        -6.0822    3.6506   50.3570 O.2     1  ZINC000330515179   -0.9500
     11 C11        -3.7856    2.8519   51.1475 C.ar    1  ZINC000330515179   -0.6700
     12 C12        -3.4895    3.9534   51.9287 C.ar    1  ZINC000330515179   -0.0100
     13 C13        -2.1731    4.2701   52.2066 C.ar    1  ZINC000330515179   -0.1100
     14 C14        -1.1518    3.4848   51.7029 C.ar    1  ZINC000330515179   -0.0400
     15 Br15        0.6493    3.9173   52.0832 Br      1  ZINC000330515179   -0.0300
     16 C16        -1.4485    2.3828   50.9213 C.ar    1  ZINC000330515179   -0.1100
     17 C17        -2.7654    2.0637   50.6483 C.ar    1  ZINC000330515179   -0.0100
     18 C18        -6.2529    3.0120   53.3390 C.3     1  ZINC000330515179    0.1000
     19 C19        -7.7028    3.0800   53.8319 C.3     1  ZINC000330515179    0.1000
     20 C20        -7.7706    3.9255   55.1052 C.3     1  ZINC000330515179   -0.1400
     21 C21        -8.5811    3.7129   52.7507 C.3     1  ZINC000330515179   -0.1800
     22 O22        -8.1683    1.7575   54.1117 O.3     1  ZINC000330515179   -0.3500
     23 H23       -12.0797   -0.1334   53.4127 H       1  ZINC000330515179    0.0900
     24 H24       -11.0189   -0.5305   54.7858 H       1  ZINC000330515179    0.0400
     25 H25       -10.8689    1.0455   53.9719 H       1  ZINC000330515179    0.0400
     26 H26        -8.7391   -0.5642   54.4626 H       1  ZINC000330515179    0.0600
     27 H27        -8.1718   -1.2589   52.9251 H       1  ZINC000330515179    0.0700
     28 H28        -6.1783    0.1561   53.1564 H       1  ZINC000330515179    0.0900
     29 H29        -6.8047    0.1768   51.4877 H       1  ZINC000330515179    0.1000
     30 H30        -4.2870    4.5667   52.3216 H       1  ZINC000330515179    0.1500
     31 H31        -1.9419    5.1309   52.8165 H       1  ZINC000330515179    0.1500
     32 H32        -0.6515    1.7693   50.5279 H       1  ZINC000330515179    0.1500
     33 H33        -2.9971    1.2034   50.0381 H       1  ZINC000330515179    0.1500
     34 H34        -5.6039    2.6846   54.1512 H       1  ZINC000330515179    0.0900
     35 H35        -5.9373    3.9953   52.9899 H       1  ZINC000330515179    0.1000
     36 H36        -7.4122    4.9326   54.8921 H       1  ZINC000330515179    0.0800
     37 H37        -8.8018    3.9734   55.4551 H       1  ZINC000330515179    0.0700
     38 H38        -7.1461    3.4730   55.8756 H       1  ZINC000330515179    0.0700
     39 H39        -8.5337    3.1090   51.8445 H       1  ZINC000330515179    0.0600
     40 H40        -9.6118    3.7608   53.1020 H       1  ZINC000330515179    0.0700
     41 H41        -8.2234    4.7198   52.5355 H       1  ZINC000330515179    0.0700
@<TRIPOS>BOND
     1     1     2    1
     2     1    23    1
     3     1    24    1
     4     1    25    1
     5     2     3    1
     6     3     4    1
     7     3    26    1
     8     3    27    1
     9     4     5    1
    10     4    22    1
    11     4     6    1
    12     6     7    1
    13     6    28    1
    14     6    29    1
    15     7     8   am
    16     7    18    1
    17     8     9    2
    18     8    10    2
    19     8    11    1
    20    11    17   ar
    21    11    12   ar
    22    12    13   ar
    23    12    30    1
    24    13    14   ar
    25    13    31    1
    26    14    15    1
    27    14    16   ar
    28    16    17   ar
    29    16    32    1
    30    17    33    1
    31    18    19    1
    32    18    34    1
    33    18    35    1
    34    19    20    1
    35    19    21    1
    36    19    22    1
    37    20    36    1
    38    20    37    1
    39    20    38    1
    40    21    39    1
    41    21    40    1
    42    21    41    1
@<TRIPOS>SUBSTRUCTURE
     1 ZINC000330515179        1 TEMP              0 ****  ****    0 ROOT


##########                                Name:      oleObject5.pdb
##########                DOCK_Rotatable_Bonds:                   5
##########                         Heavy_Atoms:                  24
##########                    Molecular_Weight:             323.438
##########                DOCK_Rotatable_Bonds:                   5
##########                       Formal_Charge:         0.000200074
##########                     HBond_Acceptors:                   4
##########                        HBond_Donors:                   2
##########                         Heavy_Atoms:                  24
##########                          Grid_Score:          -26.654196
##########                     Grid_vdw_energy:          -27.229652
##########                      Grid_es_energy:            0.575457
##########           Internal_energy_repulsive:           11.356681

@<TRIPOS>MOLECULE
oleObject5.pdb
 49 51 1 0 0
SMALL
NO_CHARGES


@<TRIPOS>ATOM
      1 C          -5.7089    0.4270   50.7784 C.3     1  UNL        -0.0394
      2 C          -6.5714    0.8766   51.9537 C.ar    1  UNL        -0.0456
      3 C          -7.5582   -0.0119   52.4246 C.ar    1  UNL        -0.0590
      4 C          -8.4006    0.3450   53.4869 C.ar    1  UNL        -0.0620
      5 C          -8.2676    1.6025   54.0878 C.ar    1  UNL        -0.0619
      6 C          -7.2910    2.4967   53.6266 C.ar    1  UNL        -0.0565
      7 C          -6.4277    2.1494   52.5657 C.ar    1  UNL        -0.0188
      8 C          -5.4013    3.1871   52.0914 C.3     1  UNL         0.0906
      9 N          -6.0900    4.4544   51.7893 N.am    1  UNL        -0.3025
     10 C          -6.8719    4.6380   50.6631 C.2     1  UNL         0.2156
     11 O          -7.1776    3.7132   49.9301 O.2     1  UNL        -0.2774
     12 C          -7.4924    6.0439   50.5556 C.3     1  UNL         0.0382
     13 C          -8.8810    6.1075   51.2464 C.3     1  UNL        -0.0292
     14 C          -9.9680    5.3944   50.4128 C.3     1  UNL        -0.0041
     15 N         -10.0405    5.9623   49.0556 N.4     1  UNL        -0.3167
     16 C          -8.7691    5.8736   48.3156 C.3     1  UNL        -0.0041
     17 C          -7.6073    6.5456   49.0900 C.3     1  UNL        -0.0292
     18 C          -4.2516    3.3566   53.0995 C.ar    1  UNL         0.0681
     19 N          -4.5987    3.7124   54.3604 N.ar    1  UNL        -0.2587
     20 C          -3.6389    3.8676   55.2915 C.ar    1  UNL         0.0272
     21 C          -2.2780    3.6720   55.0149 C.ar    1  UNL        -0.0435
     22 C          -1.9040    3.2984   53.7163 C.ar    1  UNL        -0.0559
     23 C          -2.8999    3.1343   52.7348 C.ar    1  UNL        -0.0272
     24 C          -2.4945    2.7197   51.3260 C.3     1  UNL        -0.0379
     25 H          -5.8726   -0.6312   50.5396 H       1  UNL         0.0280
     26 H          -4.6398    0.5421   50.9885 H       1  UNL         0.0280
     27 H          -5.9450    0.9993   49.8748 H       1  UNL         0.0280
     28 H          -7.6789   -0.9870   51.9607 H       1  UNL         0.0626
     29 H          -9.1581   -0.3496   53.8385 H       1  UNL         0.0623
     30 H          -8.9223    1.8868   54.9066 H       1  UNL         0.0623
     31 H          -7.2118    3.4722   54.0970 H       1  UNL         0.0627
     32 H          -4.9442    2.8488   51.1568 H       1  UNL         0.0624
     33 H          -6.3024    5.0379   52.5879 H       1  UNL         0.1504
     34 H          -6.8143    6.7217   51.0902 H       1  UNL         0.0402
     35 H          -9.1685    7.1590   51.3751 H       1  UNL         0.0288
     36 H          -8.8384    5.6725   52.2527 H       1  UNL         0.0288
     37 H         -10.9393    5.5018   50.9118 H       1  UNL         0.0428
     38 H          -9.7381    4.3224   50.3552 H       1  UNL         0.0428
     39 H         -10.3150    6.9417   49.1237 H       1  UNL         0.1222
     40 H          -8.8783    6.3553   47.3357 H       1  UNL         0.0428
     41 H          -8.5280    4.8185   48.1359 H       1  UNL         0.0428
     42 H          -7.7796    7.6296   49.1016 H       1  UNL         0.0288
     43 H          -6.6604    6.3858   48.5584 H       1  UNL         0.0288
     44 H          -3.9714    4.1570   56.2876 H       1  UNL         0.0840
     45 H          -1.5303    3.8055   55.7911 H       1  UNL         0.0639
     46 H          -0.8563    3.1378   53.4779 H       1  UNL         0.0627
     47 H          -1.4080    2.5947   51.2383 H       1  UNL         0.0280
     48 H          -2.7952    3.4747   50.5894 H       1  UNL         0.0280
     49 H          -2.9548    1.7637   51.0484 H       1  UNL         0.0280
@<TRIPOS>BOND
     1     1     2    1
     2     1    25    1
     3     1    26    1
     4     1    27    1
     5     2     3   ar
     6     2     7   ar
     7     3     4   ar
     8     3    28    1
     9     4     5   ar
    10     4    29    1
    11     5     6   ar
    12     5    30    1
    13     6     7   ar
    14     6    31    1
    15     7     8    1
    16     8     9    1
    17     8    18    1
    18     8    32    1
    19     9    10   am
    20     9    33    1
    21    10    11    2
    22    10    12    1
    23    12    13    1
    24    12    17    1
    25    12    34    1
    26    13    14    1
    27    13    35    1
    28    13    36    1
    29    14    15    1
    30    14    37    1
    31    14    38    1
    32    15    16    1
    33    15    39    1
    34    16    17    1
    35    16    40    1
    36    16    41    1
    37    17    42    1
    38    17    43    1
    39    18    19   ar
    40    18    23   ar
    41    19    20   ar
    42    20    21   ar
    43    20    44    1
    44    21    22   ar
    45    21    45    1
    46    22    23   ar
    47    22    46    1
    48    23    24    1
    49    24    47    1
    50    24    48    1
    51    24    49    1
@<TRIPOS>SUBSTRUCTURE
     1 UNL         1 TEMP              0 ****  ****    0 ROOT


##########                                Name:    ZINC000469391664
##########                DOCK_Rotatable_Bonds:                   6
##########                         Heavy_Atoms:                  29
##########                    Molecular_Weight:             408.524
##########                DOCK_Rotatable_Bonds:                   6
##########                       Formal_Charge:         -0.00999999
##########                     HBond_Acceptors:                   7
##########                        HBond_Donors:                   0
##########                         Heavy_Atoms:                  29
##########                          Grid_Score:          -26.650171
##########                     Grid_vdw_energy:          -26.781748
##########                      Grid_es_energy:            0.131576
##########           Internal_energy_repulsive:           21.009035

@<TRIPOS>MOLECULE
ZINC000469391664
 53 56 1 0 0
SMALL
USER_CHARGES


@<TRIPOS>ATOM
      1 C1         -9.6530    0.0487   60.4607 C.3     1  ZINC000469391664   -0.1500
      2 C2         -9.0973    0.1485   59.0386 C.3     1  ZINC000469391664   -0.1000
      3 H3         -8.6400   -0.8009   58.7600 H       1  ZINC000469391664    0.0800
      4 C4         -8.0452    1.2583   58.9791 C.3     1  ZINC000469391664   -0.1300
      5 C5         -7.4664    1.3322   57.5627 C.3     1  ZINC000469391664    0.1100
      6 N6         -8.5713    1.4963   56.6082 N.am    1  ZINC000469391664   -0.6100
      7 C7         -8.5660    2.5094   55.7193 C.2     1  ZINC000469391664    0.5600
      8 O8         -7.6409    3.2984   55.7020 O.2     1  ZINC000469391664   -0.5000
      9 C9         -9.6825    2.6610   54.7674 C.ar    1  ZINC000469391664   -0.1100
     10 C10       -10.9478    3.0382   55.2228 C.ar    1  ZINC000469391664   -0.0900
     11 C11       -11.9868    3.1787   54.3281 C.ar    1  ZINC000469391664   -0.1000
     12 C12       -11.7834    2.9470   52.9775 C.ar    1  ZINC000469391664   -0.0900
     13 C13       -10.5386    2.5731   52.5123 C.ar    1  ZINC000469391664   -0.1000
     14 C14        -9.4784    2.4327   53.3979 C.ar    1  ZINC000469391664    0.1500
     15 N15        -8.2226    2.0559   52.9312 N.am    1  ZINC000469391664   -0.5800
     16 C16        -7.7357    0.6928   53.1574 C.3     1  ZINC000469391664    0.0900
     17 C17        -7.4542    2.9451   52.2713 C.2     1  ZINC000469391664    0.6100
     18 O18        -7.8586    4.0775   52.0836 O.2     1  ZINC000469391664   -0.5200
     19 C19        -6.1320    2.5484   51.7800 C.2     1  ZINC000469391664   -0.2600
     20 C20        -4.9560    3.1829   52.0680 C.2     1  ZINC000469391664   -0.0500
     21 C21        -3.8632    2.5979   51.4737 C.2     1  ZINC000469391664   -0.1500
     22 C22        -4.1322    1.5220   50.7248 C.2     1  ZINC000469391664   -0.2600
     23 S23        -5.8028    1.1757   50.7318 S.3     1  ZINC000469391664    0.2300
     24 C24        -9.6818    0.5350   56.6410 C.3     1  ZINC000469391664    0.1000
     25 C25       -10.2358    0.4703   58.0678 C.3     1  ZINC000469391664    0.1300
     26 H26       -10.6775    1.4316   58.3305 H       1  ZINC000469391664    0.1000
     27 N27       -11.2580   -0.5760   58.1486 N.pl3   1  ZINC000469391664   -0.4500
     28 C28       -12.5904   -0.3919   58.4026 C.2     1  ZINC000469391664   -0.0500
     29 C29       -13.1623   -1.6111   58.3860 C.2     1  ZINC000469391664   -0.0300
     30 N30       -12.2053   -2.5148   58.1288 N.2     1  ZINC000469391664   -0.4900
     31 C31       -11.0629   -1.9016   57.9803 C.2     1  ZINC000469391664    0.1800
     32 H32       -10.4020   -0.7420   60.5034 H       1  ZINC000469391664    0.0600
     33 H33        -8.8424   -0.1810   61.1522 H       1  ZINC000469391664    0.0600
     34 H34       -10.1104    0.9979   60.7395 H       1  ZINC000469391664    0.0600
     35 H35        -8.5076    2.2120   59.2333 H       1  ZINC000469391664    0.0700
     36 H36        -7.2462    1.0405   59.6877 H       1  ZINC000469391664    0.0900
     37 H37        -6.7898    2.1835   57.4884 H       1  ZINC000469391664    0.1000
     38 H38        -6.9253    0.4124   57.3405 H       1  ZINC000469391664    0.0800
     39 H39       -11.1118    3.2193   56.2747 H       1  ZINC000469391664    0.1400
     40 H40       -12.9645    3.4705   54.6818 H       1  ZINC000469391664    0.1400
     41 H41       -12.6039    3.0593   52.2842 H       1  ZINC000469391664    0.1400
     42 H42       -10.3881    2.3939   51.4580 H       1  ZINC000469391664    0.1400
     43 H43        -7.9564    0.0786   52.2843 H       1  ZINC000469391664    0.0600
     44 H44        -6.6587    0.7145   53.3236 H       1  ZINC000469391664    0.0900
     45 H45        -8.2299    0.2710   54.0325 H       1  ZINC000469391664    0.0700
     46 H46        -4.8918    4.0569   52.6992 H       1  ZINC000469391664    0.1500
     47 H47        -2.8607    2.9790   51.6015 H       1  ZINC000469391664    0.1400
     48 H48        -3.3901    0.9470   50.1906 H       1  ZINC000469391664    0.1600
     49 H49       -10.4670    0.8603   55.9586 H       1  ZINC000469391664    0.1000
     50 H50        -9.3215   -0.4499   56.3437 H       1  ZINC000469391664    0.0800
     51 H51       -13.0874    0.5499   58.5824 H       1  ZINC000469391664    0.1700
     52 H52       -14.2082   -1.8237   58.5509 H       1  ZINC000469391664    0.1700
     53 H53       -10.1169   -2.3763   57.7653 H       1  ZINC000469391664    0.2000
@<TRIPOS>BOND
     1     1     2    1
     2     1    32    1
     3     1    33    1
     4     1    34    1
     5     2     3    1
     6     2    25    1
     7     2     4    1
     8     4     5    1
     9     4    35    1
    10     4    36    1
    11     5     6    1
    12     5    37    1
    13     5    38    1
    14     6     7   am
    15     6    24    1
    16     7     8    2
    17     7     9    1
    18     9    14   ar
    19     9    10   ar
    20    10    11   ar
    21    10    39    1
    22    11    12   ar
    23    11    40    1
    24    12    13   ar
    25    12    41    1
    26    13    14   ar
    27    13    42    1
    28    14    15    1
    29    15    16    1
    30    15    17   am
    31    16    43    1
    32    16    44    1
    33    16    45    1
    34    17    18    2
    35    17    19    1
    36    19    23    1
    37    19    20    2
    38    20    21    1
    39    20    46    1
    40    21    22    2
    41    21    47    1
    42    22    23    1
    43    22    48    1
    44    24    25    1
    45    24    49    1
    46    24    50    1
    47    25    26    1
    48    25    27    1
    49    27    31    1
    50    27    28    1
    51    28    29    2
    52    28    51    1
    53    29    30    1
    54    29    52    1
    55    30    31    2
    56    31    53    1
@<TRIPOS>SUBSTRUCTURE
     1 ZINC000469391664        1 TEMP              0 ****  ****    0 ROOT


##########                                Name:    ZINC000942890482
##########                DOCK_Rotatable_Bonds:                   8
##########                         Heavy_Atoms:                  25
##########                    Molecular_Weight:             346.445
##########                DOCK_Rotatable_Bonds:                   8
##########                       Formal_Charge:          -0.0100004
##########                     HBond_Acceptors:                   5
##########                        HBond_Donors:                   0
##########                         Heavy_Atoms:                  25
##########                          Grid_Score:          -26.602299
##########                     Grid_vdw_energy:          -25.802256
##########                      Grid_es_energy:           -0.800044
##########           Internal_energy_repulsive:           28.815775

@<TRIPOS>MOLECULE
ZINC000942890482
 52 54 1 0 0
SMALL
USER_CHARGES


@<TRIPOS>ATOM
      1 C1         -8.2751    0.6366   59.9329 C.3     1  ZINC000942890482   -0.1700
      2 C2         -9.1465   -0.6209   59.9546 C.3     1  ZINC000942890482    0.1000
      3 N3        -10.5313   -0.2502   60.2567 N.am    1  ZINC000942890482   -0.6000
      4 C4        -11.4389   -0.1685   59.2637 C.2     1  ZINC000942890482    0.5700
      5 O5        -12.5881    0.1391   59.5144 O.2     1  ZINC000942890482   -0.5100
      6 C6        -11.0375   -0.4526   57.8708 C.ar    1  ZINC000942890482   -0.1400
      7 C7        -10.6142    0.5852   57.0380 C.ar    1  ZINC000942890482   -0.0600
      8 C8        -10.2401    0.3143   55.7391 C.ar    1  ZINC000942890482   -0.1600
      9 C9        -10.2837   -0.9856   55.2592 C.ar    1  ZINC000942890482    0.1300
     10 F10        -9.9160   -1.2457   53.9855 F       1  ZINC000942890482   -0.1300
     11 C11       -10.7028   -2.0201   56.0822 C.ar    1  ZINC000942890482   -0.1600
     12 C12       -11.0744   -1.7612   57.3838 C.ar    1  ZINC000942890482   -0.0100
     13 C13       -11.5295   -2.8863   58.2771 C.3     1  ZINC000942890482   -0.1200
     14 C14       -10.9295    0.0317   61.6381 C.3     1  ZINC000942890482    0.1400
     15 H15       -11.8762   -0.4533   61.8762 H       1  ZINC000942890482    0.1100
     16 C16       -11.0079    1.5601   61.8934 C.3     1  ZINC000942890482   -0.1500
     17 C17       -10.7482    1.6708   63.4106 C.3     1  ZINC000942890482    0.1100
     18 N18       -10.0366    0.4517   63.8218 N.am    1  ZINC000942890482   -0.6200
     19 C19        -9.6465    0.1555   65.0774 C.2     1  ZINC000942890482    0.5300
     20 O20        -9.0625   -0.8835   65.3018 O.2     1  ZINC000942890482   -0.5400
     21 C21        -9.9362    1.1153   66.2026 C.3     1  ZINC000942890482   -0.1300
     22 C22        -8.9074    0.9191   67.3179 C.3     1  ZINC000942890482   -0.0700
     23 C23        -7.5039    1.1847   66.7696 C.3     1  ZINC000942890482   -0.1600
     24 C24        -6.7721    2.4297   67.2747 C.3     1  ZINC000942890482   -0.1800
     25 C25        -6.3282    1.0406   67.7379 C.3     1  ZINC000942890482   -0.1800
     26 C26        -9.8215   -0.3945   62.6333 C.3     1  ZINC000942890482    0.0900
     27 H27        -8.6433    1.3206   59.1682 H       1  ZINC000942890482    0.0600
     28 H28        -8.3166    1.1243   60.9068 H       1  ZINC000942890482    0.0600
     29 H29        -7.2448    0.3608   59.7082 H       1  ZINC000942890482    0.0700
     30 H30        -9.1051   -1.1085   58.9807 H       1  ZINC000942890482    0.0900
     31 H31        -8.7784   -1.3048   60.7193 H       1  ZINC000942890482    0.0900
     32 H32       -10.5802    1.5983   57.4107 H       1  ZINC000942890482    0.1400
     33 H33        -9.9129    1.1163   55.0939 H       1  ZINC000942890482    0.1400
     34 H34       -10.7348   -3.0311   55.7034 H       1  ZINC000942890482    0.1400
     35 H35       -10.6623   -3.3533   58.7438 H       1  ZINC000942890482    0.0900
     36 H36       -12.1900   -2.4925   59.0496 H       1  ZINC000942890482    0.0700
     37 H37       -12.0657   -3.6271   57.6837 H       1  ZINC000942890482    0.0700
     38 H38       -10.2361    2.0851   61.3307 H       1  ZINC000942890482    0.1000
     39 H39       -11.9972    1.9427   61.6426 H       1  ZINC000942890482    0.0900
     40 H40       -10.1338    2.5467   63.6187 H       1  ZINC000942890482    0.0700
     41 H41       -11.6957    1.7447   63.9445 H       1  ZINC000942890482    0.0700
     42 H42        -9.8788    2.1385   65.8311 H       1  ZINC000942890482    0.0900
     43 H43       -10.9361    0.9262   66.5931 H       1  ZINC000942890482    0.0900
     44 H44        -9.1169    1.6133   68.1317 H       1  ZINC000942890482    0.0700
     45 H45        -8.9648   -0.1040   67.6892 H       1  ZINC000942890482    0.0700
     46 H46        -7.3409    0.8907   65.7326 H       1  ZINC000942890482    0.1000
     47 H47        -6.1274    2.9551   66.5702 H       1  ZINC000942890482    0.0900
     48 H48        -7.2904    3.0595   67.9978 H       1  ZINC000942890482    0.0900
     49 H49        -6.5545    0.7567   68.7656 H       1  ZINC000942890482    0.0900
     50 H50        -5.3915    0.6523   67.3380 H       1  ZINC000942890482    0.0900
     51 H51        -9.9280   -1.4476   62.8931 H       1  ZINC000942890482    0.0800
     52 H52        -8.8364   -0.2059   62.2066 H       1  ZINC000942890482    0.0900
@<TRIPOS>BOND
     1     1     2    1
     2     1    27    1
     3     1    28    1
     4     1    29    1
     5     2     3    1
     6     2    30    1
     7     2    31    1
     8     3     4   am
     9     3    14    1
    10     4     5    2
    11     4     6    1
    12     6    12   ar
    13     6     7   ar
    14     7     8   ar
    15     7    32    1
    16     8     9   ar
    17     8    33    1
    18     9    10    1
    19     9    11   ar
    20    11    12   ar
    21    11    34    1
    22    12    13    1
    23    13    35    1
    24    13    36    1
    25    13    37    1
    26    14    15    1
    27    14    26    1
    28    14    16    1
    29    16    17    1
    30    16    38    1
    31    16    39    1
    32    17    18    1
    33    17    40    1
    34    17    41    1
    35    18    19   am
    36    18    26    1
    37    19    20    2
    38    19    21    1
    39    21    22    1
    40    21    42    1
    41    21    43    1
    42    22    23    1
    43    22    44    1
    44    22    45    1
    45    23    25    1
    46    23    24    1
    47    23    46    1
    48    24    25    1
    49    24    47    1
    50    24    48    1
    51    25    49    1
    52    25    50    1
    53    26    51    1
    54    26    52    1
@<TRIPOS>SUBSTRUCTURE
     1 ZINC000942890482        1 TEMP              0 ****  ****    0 ROOT


##########                                Name:    ZINC000347662449
##########                DOCK_Rotatable_Bonds:                   5
##########                         Heavy_Atoms:                  23
##########                    Molecular_Weight:              327.45
##########                DOCK_Rotatable_Bonds:                   5
##########                       Formal_Charge:                0.03
##########                     HBond_Acceptors:                   5
##########                        HBond_Donors:                   0
##########                         Heavy_Atoms:                  23
##########                          Grid_Score:          -26.565651
##########                     Grid_vdw_energy:          -27.118942
##########                      Grid_es_energy:            0.553291
##########           Internal_energy_repulsive:            8.620628

@<TRIPOS>MOLECULE
ZINC000347662449
 44 46 1 0 0
SMALL
USER_CHARGES


@<TRIPOS>ATOM
      1 C1          0.3830   -0.7776   60.8367 C.2     1  ZINC000347662449   -0.1800
      2 C2          0.8276    0.2817   60.2070 C.2     1  ZINC000347662449   -0.1700
      3 C3         -0.0466    1.5020   60.0750 C.3     1  ZINC000347662449    0.1600
      4 N4          0.2209    2.1580   58.7927 N.am    1  ZINC000347662449   -0.6200
      5 C5          1.5040    2.0967   58.0829 C.3     1  ZINC000347662449    0.1100
      6 C6          1.1950    2.5349   56.6342 C.3     1  ZINC000347662449   -0.1100
      7 C7         -0.0652    3.4090   56.8313 C.3     1  ZINC000347662449   -0.1200
      8 H8          0.2107    4.4584   56.9348 H       1  ZINC000347662449    0.1400
      9 S9         -1.2106    3.1903   55.4468 S.3     1  ZINC000347662449    0.0300
     10 C10        -0.3232    4.0334   54.1794 C.2     1  ZINC000347662449    0.1900
     11 N11         0.8179    4.6647   54.3303 N.2     1  ZINC000347662449   -0.4500
     12 C12         1.1975    5.1864   53.1515 C.2     1  ZINC000347662449   -0.0100
     13 C13         0.2691    4.8750   52.2310 C.2     1  ZINC000347662449   -0.0400
     14 N14        -0.7017    4.1364   52.8732 N.pl3   1  ZINC000347662449   -0.4000
     15 C15        -1.8612    3.6004   52.2956 C.ar    1  ZINC000347662449    0.1100
     16 C16        -1.7651    2.5670   51.3739 C.ar    1  ZINC000347662449   -0.1100
     17 C17        -2.9095    2.0409   50.8063 C.ar    1  ZINC000347662449   -0.1000
     18 C18        -4.1495    2.5427   51.1554 C.ar    1  ZINC000347662449   -0.0800
     19 C19        -5.3960    1.9662   50.5348 C.3     1  ZINC000347662449   -0.1200
     20 C20        -4.2484    3.5724   52.0734 C.ar    1  ZINC000347662449   -0.0700
     21 C21        -5.6020    4.1165   52.4513 C.3     1  ZINC000347662449   -0.1200
     22 C22        -3.1084    4.0985   52.6485 C.ar    1  ZINC000347662449   -0.1100
     23 C23        -0.6792    2.8885   58.1122 C.2     1  ZINC000347662449    0.5300
     24 O24        -1.8157    3.1051   58.4759 O.2     1  ZINC000347662449   -0.4900
     25 H25        -0.6101   -0.7762   61.2613 H       1  ZINC000347662449    0.1000
     26 H26         1.0079   -1.6537   60.9274 H       1  ZINC000347662449    0.1000
     27 H27         1.8206    0.2802   59.7824 H       1  ZINC000347662449    0.1100
     28 H28        -1.0944    1.2049   60.1196 H       1  ZINC000347662449    0.0900
     29 H29         0.1698    2.1937   60.8891 H       1  ZINC000347662449    0.0900
     30 H30         2.2204    2.7800   58.5391 H       1  ZINC000347662449    0.0800
     31 H31         1.8930    1.0785   58.0942 H       1  ZINC000347662449    0.0900
     32 H32         2.0155    3.1213   56.2206 H       1  ZINC000347662449    0.1100
     33 H33         0.9771    1.6728   56.0038 H       1  ZINC000347662449    0.0900
     34 H34         2.0961    5.7586   52.9740 H       1  ZINC000347662449    0.1800
     35 H35         0.2828    5.1484   51.1862 H       1  ZINC000347662449    0.1800
     36 H36        -0.7967    2.1748   51.1005 H       1  ZINC000347662449    0.1300
     37 H37        -2.8352    1.2370   50.0888 H       1  ZINC000347662449    0.1300
     38 H38        -5.7592    1.1416   51.1480 H       1  ZINC000347662449    0.0800
     39 H39        -6.1624    2.7389   50.4741 H       1  ZINC000347662449    0.0700
     40 H40        -5.1678    1.6013   49.5333 H       1  ZINC000347662449    0.0700
     41 H41        -5.9913    3.5618   53.3050 H       1  ZINC000347662449    0.0800
     42 H42        -5.5095    5.1703   52.7143 H       1  ZINC000347662449    0.0700
     43 H43        -6.2843    4.0112   51.6078 H       1  ZINC000347662449    0.0800
     44 H44        -3.1862    4.9023   53.3655 H       1  ZINC000347662449    0.1300
@<TRIPOS>BOND
     1     1     2    2
     2     1    25    1
     3     1    26    1
     4     2     3    1
     5     2    27    1
     6     3     4    1
     7     3    28    1
     8     3    29    1
     9     4    23   am
    10     4     5    1
    11     5     6    1
    12     5    30    1
    13     5    31    1
    14     6     7    1
    15     6    32    1
    16     6    33    1
    17     7     8    1
    18     7     9    1
    19     7    23    1
    20     9    10    1
    21    10    14    1
    22    10    11    2
    23    11    12    1
    24    12    13    2
    25    12    34    1
    26    13    14    1
    27    13    35    1
    28    14    15    1
    29    15    22   ar
    30    15    16   ar
    31    16    17   ar
    32    16    36    1
    33    17    18   ar
    34    17    37    1
    35    18    19    1
    36    18    20   ar
    37    19    38    1
    38    19    39    1
    39    19    40    1
    40    20    21    1
    41    20    22   ar
    42    21    41    1
    43    21    42    1
    44    21    43    1
    45    22    44    1
    46    23    24    2
@<TRIPOS>SUBSTRUCTURE
     1 ZINC000347662449        1 TEMP              0 ****  ****    0 ROOT


##########                                Name:    ZINC000252489163
##########                DOCK_Rotatable_Bonds:                   6
##########                         Heavy_Atoms:                  25
##########                    Molecular_Weight:             379.403
##########                DOCK_Rotatable_Bonds:                   6
##########                       Formal_Charge:          0.00999963
##########                     HBond_Acceptors:                  10
##########                        HBond_Donors:                   2
##########                         Heavy_Atoms:                  25
##########                          Grid_Score:          -26.539925
##########                     Grid_vdw_energy:          -26.273190
##########                      Grid_es_energy:           -0.266736
##########           Internal_energy_repulsive:           25.009098

@<TRIPOS>MOLECULE
ZINC000252489163
 45 46 1 0 0
SMALL
USER_CHARGES


@<TRIPOS>ATOM
      1 C1         -4.4968    2.1245   50.9215 C.3     1  ZINC000252489163   -0.1100
      2 C2         -3.0389    2.4819   51.0558 C.ar    1  ZINC000252489163   -0.0600
      3 C3         -2.1371    2.0731   50.0933 C.ar    1  ZINC000252489163   -0.1300
      4 C4         -0.7938    2.4033   50.2175 C.ar    1  ZINC000252489163    0.1700
      5 N5          0.1226    1.9910   49.2434 N.am    1  ZINC000252489163   -0.6800
      6 C6          1.1022    1.1227   49.5643 C.2     1  ZINC000252489163    0.7100
      7 O7          1.1897    0.6976   50.7001 O.2     1  ZINC000252489163   -0.5500
      8 N8          1.9848    0.7257   48.6263 N.am    1  ZINC000252489163   -0.6200
      9 C9          3.0581   -0.2203   48.9608 C.3     1  ZINC000252489163    0.1000
     10 C10         4.3998    0.3877   48.5406 C.3     1  ZINC000252489163   -0.1400
     11 C11         4.3398    0.7724   47.0605 C.3     1  ZINC000252489163   -0.1300
     12 C12         3.2464    1.8219   46.8484 C.3     1  ZINC000252489163    0.1400
     13 H13         3.4577    2.6968   47.4633 H       1  ZINC000252489163    0.0900
     14 N14         3.2112    2.2131   45.4370 N.am    1  ZINC000252489163   -1.1100
     15 S15         3.7326    1.1579   44.2720 S.o2    1  ZINC000252489163    2.6100
     16 C16         3.5071    2.0572   42.7129 C.3     1  ZINC000252489163   -0.6700
     17 O17         5.1148    0.9826   44.5512 O.2     1  ZINC000252489163   -0.9500
     18 O18         2.8244    0.0680   44.3548 O.2     1  ZINC000252489163   -0.9500
     19 C19         1.8881    1.2258   47.2482 C.3     1  ZINC000252489163    0.1100
     20 C20        -0.3620    3.1436   51.3098 C.ar    1  ZINC000252489163   -0.1000
     21 C21        -1.2691    3.5494   52.2693 C.ar    1  ZINC000252489163   -0.1600
     22 C22        -0.8014    4.3530   53.4554 C.3     1  ZINC000252489163    0.5100
     23 F23        -1.0443    5.7110   53.2235 F       1  ZINC000252489163   -0.1700
     24 F24        -1.4956    3.9437   54.5990 F       1  ZINC000252489163   -0.1800
     25 F25         0.5698    4.1501   53.6446 F       1  ZINC000252489163   -0.1800
     26 C26        -2.6066    3.2237   52.1400 C.ar    1  ZINC000252489163   -0.0900
     27 H27        -5.0121    2.9049   50.3616 H       1  ZINC000252489163    0.0800
     28 H28        -4.5911    1.1757   50.3933 H       1  ZINC000252489163    0.0700
     29 H29        -4.9416    2.0344   51.9126 H       1  ZINC000252489163    0.0700
     30 H30        -2.4759    1.4971   49.2448 H       1  ZINC000252489163    0.1300
     31 H31         0.0528    2.3302   48.3373 H       1  ZINC000252489163    0.4100
     32 H32         3.0609   -0.4046   50.0352 H       1  ZINC000252489163    0.0800
     33 H33         2.8984   -1.1575   48.4276 H       1  ZINC000252489163    0.0800
     34 H34         4.6003    1.2761   49.1395 H       1  ZINC000252489163    0.0700
     35 H35         5.1944   -0.3425   48.6947 H       1  ZINC000252489163    0.0900
     36 H36         5.3016    1.1826   46.7526 H       1  ZINC000252489163    0.0800
     37 H37         4.1148   -0.1120   46.4643 H       1  ZINC000252489163    0.0800
     38 H38         2.8824    3.0902   45.1849 H       1  ZINC000252489163    0.4200
     39 H39         4.1023    2.9702   42.7308 H       1  ZINC000252489163    0.1300
     40 H40         3.8289    1.4298   41.8818 H       1  ZINC000252489163    0.1300
     41 H41         2.4545    2.3122   42.5894 H       1  ZINC000252489163    0.1300
     42 H42         1.6354    0.4077   46.5737 H       1  ZINC000252489163    0.0800
     43 H43         1.1202    1.9975   47.1938 H       1  ZINC000252489163    0.1100
     44 H44         0.6820    3.4015   51.4095 H       1  ZINC000252489163    0.1800
     45 H45        -3.3139    3.5425   52.8913 H       1  ZINC000252489163    0.1300
@<TRIPOS>BOND
     1     1     2    1
     2     1    27    1
     3     1    28    1
     4     1    29    1
     5     2    26   ar
     6     2     3   ar
     7     3     4   ar
     8     3    30    1
     9     4     5    1
    10     4    20   ar
    11     5     6   am
    12     5    31    1
    13     6     7    2
    14     6     8   am
    15     8    19    1
    16     8     9    1
    17     9    10    1
    18     9    32    1
    19     9    33    1
    20    10    11    1
    21    10    34    1
    22    10    35    1
    23    11    12    1
    24    11    36    1
    25    11    37    1
    26    12    13    1
    27    12    14    1
    28    12    19    1
    29    14    15   am
    30    14    38    1
    31    15    16    1
    32    15    17    2
    33    15    18    2
    34    16    39    1
    35    16    40    1
    36    16    41    1
    37    19    42    1
    38    19    43    1
    39    20    21   ar
    40    20    44    1
    41    21    22    1
    42    21    26   ar
    43    22    23    1
    44    22    24    1
    45    22    25    1
    46    26    45    1
@<TRIPOS>SUBSTRUCTURE
     1 ZINC000252489163        1 TEMP              0 ****  ****    0 ROOT


##########                                Name:    ZINC000444542200
##########                DOCK_Rotatable_Bonds:                   8
##########                         Heavy_Atoms:                  28
##########                    Molecular_Weight:             404.337
##########                DOCK_Rotatable_Bonds:                   8
##########                       Formal_Charge:           0.0200001
##########                     HBond_Acceptors:                  10
##########                        HBond_Donors:                   1
##########                         Heavy_Atoms:                  28
##########                          Grid_Score:          -26.537487
##########                     Grid_vdw_energy:          -25.973278
##########                      Grid_es_energy:           -0.564209
##########           Internal_energy_repulsive:           20.261541

@<TRIPOS>MOLECULE
ZINC000444542200
 45 46 1 0 0
SMALL
USER_CHARGES


@<TRIPOS>ATOM
      1 C1        -14.7863   -1.8419   58.6721 C.3     1  ZINC000444542200    0.0300
      2 O2        -13.8852   -1.6386   59.7624 O.3     1  ZINC000444542200   -0.3100
      3 C3        -12.5832   -1.4046   59.4513 C.ar    1  ZINC000444542200    0.1800
      4 C4        -12.1882   -1.3423   58.1237 C.ar    1  ZINC000444542200   -0.1700
      5 C5        -10.8583   -1.1029   57.8062 C.ar    1  ZINC000444542200    0.2300
      6 N6        -10.4591   -1.0394   56.4664 N.am    1  ZINC000444542200   -0.5800
      7 C7        -10.3872   -2.2634   55.6647 C.3     1  ZINC000444542200    0.0700
      8 C8        -10.1408    0.1478   55.9137 C.2     1  ZINC000444542200    0.7100
      9 O9        -10.2007    1.1639   56.5790 O.2     1  ZINC000444542200   -0.5500
     10 N10        -9.7563    0.2090   54.6234 N.am    1  ZINC000444542200   -0.7300
     11 C11        -9.4086    1.4994   54.0230 C.3     1  ZINC000444542200    0.1700
     12 H12        -9.2738    2.2416   54.8097 H       1  ZINC000444542200    0.1500
     13 C13        -8.1291    1.3601   53.2391 C.ar    1  ZINC000444542200   -0.1300
     14 C14        -7.8509    0.1809   52.5741 C.ar    1  ZINC000444542200   -0.0800
     15 C15        -6.6774    0.0516   51.8546 C.ar    1  ZINC000444542200   -0.0900
     16 C16        -5.7801    1.1013   51.7986 C.ar    1  ZINC000444542200   -0.1100
     17 C17        -6.0558    2.2836   52.4634 C.ar    1  ZINC000444542200    0.0800
     18 F18        -5.1791    3.3101   52.4092 F       1  ZINC000444542200   -0.1200
     19 C19        -7.2352    2.4153   53.1803 C.ar    1  ZINC000444542200    0.1000
     20 F20        -7.5065    3.5683   53.8301 F       1  ZINC000444542200   -0.1100
     21 C21       -10.5339    1.9463   53.0875 C.3     1  ZINC000444542200    0.4400
     22 F22        -9.9984    2.7123   52.0466 F       1  ZINC000444542200   -0.1600
     23 F23       -11.1737    0.8209   52.5570 F       1  ZINC000444542200   -0.1700
     24 F24       -11.4584    2.7141   53.8036 F       1  ZINC000444542200   -0.1800
     25 C25        -9.9248   -0.9259   58.8180 C.ar    1  ZINC000444542200   -0.1900
     26 C26       -10.3211   -0.9885   60.1452 C.ar    1  ZINC000444542200    0.1800
     27 O27        -9.4072   -0.8152   61.1359 O.3     1  ZINC000444542200   -0.3100
     28 C28        -8.0581   -0.5640   60.7375 C.3     1  ZINC000444542200    0.0300
     29 C29       -11.6509   -1.2224   60.4618 C.ar    1  ZINC000444542200   -0.2900
     30 H30       -14.7917   -0.9572   58.0354 H       1  ZINC000444542200    0.0600
     31 H31       -14.4642   -2.7059   58.0907 H       1  ZINC000444542200    0.0600
     32 H32       -15.7903   -2.0178   59.0584 H       1  ZINC000444542200    0.1000
     33 H33       -12.9150   -1.4804   57.3370 H       1  ZINC000444542200    0.1300
     34 H34       -11.3481   -2.4375   55.1805 H       1  ZINC000444542200    0.0700
     35 H35        -9.6122   -2.1558   54.9059 H       1  ZINC000444542200    0.0700
     36 H36       -10.1479   -3.1077   56.3113 H       1  ZINC000444542200    0.0900
     37 H37        -9.7098   -0.6013   54.0922 H       1  ZINC000444542200    0.4100
     38 H38        -8.5507   -0.6406   52.6169 H       1  ZINC000444542200    0.1400
     39 H39        -6.4616   -0.8708   51.3359 H       1  ZINC000444542200    0.1500
     40 H40        -4.8636    0.9989   51.2365 H       1  ZINC000444542200    0.1500
     41 H41        -8.8898   -0.7400   58.5715 H       1  ZINC000444542200    0.1400
     42 H42        -8.0192    0.3472   60.1405 H       1  ZINC000444542200    0.0600
     43 H43        -7.4338   -0.4451   61.6231 H       1  ZINC000444542200    0.1000
     44 H44        -7.6921   -1.4025   60.1449 H       1  ZINC000444542200    0.0600
     45 H45       -11.9591   -1.2711   61.4957 H       1  ZINC000444542200    0.1400
@<TRIPOS>BOND
     1     1     2    1
     2     1    30    1
     3     1    31    1
     4     1    32    1
     5     2     3    1
     6     3    29   ar
     7     3     4   ar
     8     4     5   ar
     9     4    33    1
    10     5     6    1
    11     5    25   ar
    12     6     7    1
    13     6     8   am
    14     7    34    1
    15     7    35    1
    16     7    36    1
    17     8     9    2
    18     8    10   am
    19    10    11    1
    20    10    37    1
    21    11    12    1
    22    11    13    1
    23    11    21    1
    24    13    19   ar
    25    13    14   ar
    26    14    15   ar
    27    14    38    1
    28    15    16   ar
    29    15    39    1
    30    16    17   ar
    31    16    40    1
    32    17    18    1
    33    17    19   ar
    34    19    20    1
    35    21    22    1
    36    21    23    1
    37    21    24    1
    38    25    26   ar
    39    25    41    1
    40    26    27    1
    41    26    29   ar
    42    27    28    1
    43    28    42    1
    44    28    43    1
    45    28    44    1
    46    29    45    1
@<TRIPOS>SUBSTRUCTURE
     1 ZINC000444542200        1 TEMP              0 ****  ****    0 ROOT


##########                                Name:    ZINC001039666729
##########                DOCK_Rotatable_Bonds:                   3
##########                         Heavy_Atoms:                  25
##########                    Molecular_Weight:             344.376
##########                DOCK_Rotatable_Bonds:                   3
##########                       Formal_Charge:          -0.0199998
##########                     HBond_Acceptors:                  10
##########                        HBond_Donors:                   2
##########                         Heavy_Atoms:                  25
##########                          Grid_Score:          -26.507252
##########                     Grid_vdw_energy:          -26.883648
##########                      Grid_es_energy:            0.376397
##########           Internal_energy_repulsive:           67.957420

@<TRIPOS>MOLECULE
ZINC001039666729
 45 47 1 0 0
SMALL
USER_CHARGES


@<TRIPOS>ATOM
      1 C1        -15.7379   -3.4443   58.0862 C.3     1  ZINC001039666729   -0.1100
      2 C2        -14.6952   -2.6969   58.8770 C.ar    1  ZINC001039666729    0.2200
      3 C3        -15.0683   -1.8748   59.9285 C.ar    1  ZINC001039666729   -0.3000
      4 C4        -14.0777   -1.2054   60.6300 C.ar    1  ZINC001039666729    0.1900
      5 N5        -12.8137   -1.3699   60.2772 N.ar    1  ZINC001039666729   -0.5800
      6 C6        -12.4905   -2.1637   59.2665 C.ar    1  ZINC001039666729    0.6000
      7 N7        -11.1577   -2.3133   58.9244 N.pl3   1  ZINC001039666729   -0.5900
      8 C8        -10.6228   -3.4811   58.1595 C.3     1  ZINC001039666729    0.1200
      9 C9        -10.9142   -3.2431   56.6762 C.3     1  ZINC001039666729    0.0900
     10 N10       -10.1860   -2.0236   56.2456 N.am    1  ZINC001039666729   -0.7400
     11 C11       -10.9488   -0.8858   56.2237 C.2     1  ZINC001039666729    0.5200
     12 O12       -12.1195   -0.9178   56.5389 O.2     1  ZINC001039666729   -0.5200
     13 C13       -10.3002    0.4067   55.7995 C.3     1  ZINC001039666729   -0.1500
     14 C14       -10.3730    1.4150   56.9479 C.3     1  ZINC001039666729    0.1100
     15 N15        -9.7296    0.8107   58.1432 N.am    1  ZINC001039666729   -0.6100
     16 C16        -8.4095    0.9191   58.3921 C.2     1  ZINC001039666729    0.6100
     17 O17        -7.9338    0.4037   59.3849 O.2     1  ZINC001039666729   -0.5200
     18 C18        -7.5401    1.6646   57.4577 C.2     1  ZINC001039666729   -0.0400
     19 N19        -6.3286    2.1424   57.6985 N.2     1  ZINC001039666729   -0.2500
     20 N20        -5.9018    2.7279   56.6361 N.pl3   1  ZINC001039666729   -0.2300
     21 N21        -6.7715    2.6656   55.6921 N.2     1  ZINC001039666729   -0.2800
     22 C22        -7.8237    2.0113   56.1215 C.2     1  ZINC001039666729    0.0400
     23 C23       -10.6581    0.0777   59.0425 C.3     1  ZINC001039666729    0.1100
     24 C24       -10.0946   -1.3221   59.2735 C.3     1  ZINC001039666729    0.1300
     25 N25       -13.4123   -2.8218   58.5793 N.ar    1  ZINC001039666729   -0.5700
     26 H26       -15.9153   -4.4163   58.5464 H       1  ZINC001039666729    0.0800
     27 H27       -16.6656   -2.8722   58.0763 H       1  ZINC001039666729    0.0800
     28 H28       -15.3868   -3.5849   57.0639 H       1  ZINC001039666729    0.0800
     29 H29       -16.1083   -1.7581   60.1953 H       1  ZINC001039666729    0.1400
     30 H30       -14.3350   -0.5569   61.4544 H       1  ZINC001039666729    0.1600
     31 H31        -9.5472   -3.5631   58.3157 H       1  ZINC001039666729    0.0800
     32 H32       -11.1152   -4.3956   58.4902 H       1  ZINC001039666729    0.0900
     33 H33       -10.5738   -4.0989   56.0934 H       1  ZINC001039666729    0.0800
     34 H34       -11.9851   -3.1018   56.5306 H       1  ZINC001039666729    0.1000
     35 H35        -9.2476   -2.0316   55.9999 H       1  ZINC001039666729    0.4100
     36 H36        -9.2568    0.2225   55.5433 H       1  ZINC001039666729    0.0800
     37 H37       -10.8223    0.8072   54.9306 H       1  ZINC001039666729    0.1100
     38 H38        -9.8462    2.3276   56.6693 H       1  ZINC001039666729    0.1100
     39 H39       -11.4153    1.6452   57.1689 H       1  ZINC001039666729    0.0900
     40 H40        -5.0371    3.1603   56.5578 H       1  ZINC001039666729    0.4700
     41 H41        -8.7243    1.7901   55.5681 H       1  ZINC001039666729    0.2100
     42 H42       -10.7411    0.6047   59.9931 H       1  ZINC001039666729    0.0800
     43 H43       -11.6403    0.0046   58.5756 H       1  ZINC001039666729    0.1200
     44 H44        -9.8164   -1.4395   60.3208 H       1  ZINC001039666729    0.0700
     45 H45        -9.2217   -1.4775   58.6395 H       1  ZINC001039666729    0.0900
@<TRIPOS>BOND
     1     1     2    1
     2     1    26    1
     3     1    27    1
     4     1    28    1
     5     2    25   ar
     6     2     3   ar
     7     3     4   ar
     8     3    29    1
     9     4     5   ar
    10     4    30    1
    11     5     6   ar
    12     6     7    1
    13     6    25   ar
    14     7    24    1
    15     7     8    1
    16     8     9    1
    17     8    31    1
    18     8    32    1
    19     9    10    1
    20     9    33    1
    21     9    34    1
    22    10    11   am
    23    10    35    1
    24    11    12    2
    25    11    13    1
    26    13    14    1
    27    13    36    1
    28    13    37    1
    29    14    15    1
    30    14    38    1
    31    14    39    1
    32    15    16   am
    33    15    23    1
    34    16    17    2
    35    16    18    1
    36    18    22    1
    37    18    19    2
    38    19    20    1
    39    20    21    1
    40    20    40    1
    41    21    22    2
    42    22    41    1
    43    23    24    1
    44    23    42    1
    45    23    43    1
    46    24    44    1
    47    24    45    1
@<TRIPOS>SUBSTRUCTURE
     1 ZINC001039666729        1 TEMP              0 ****  ****    0 ROOT


##########                                Name:    ZINC000561219098
##########                DOCK_Rotatable_Bonds:                   4
##########                         Heavy_Atoms:                  28
##########                    Molecular_Weight:             423.273
##########                DOCK_Rotatable_Bonds:                   4
##########                       Formal_Charge:          0.00999953
##########                     HBond_Acceptors:                   9
##########                        HBond_Donors:                   1
##########                         Heavy_Atoms:                  28
##########                          Grid_Score:          -26.479389
##########                     Grid_vdw_energy:          -27.240860
##########                      Grid_es_energy:            0.761471
##########           Internal_energy_repulsive:           16.495760

@<TRIPOS>MOLECULE
ZINC000561219098
 45 48 1 0 0
SMALL
USER_CHARGES


@<TRIPOS>ATOM
      1 C1        -16.9031   -2.8332   59.4775 C.3     1  ZINC000561219098    0.0700
      2 N2        -15.8663   -2.6808   58.4539 N.pl3   1  ZINC000561219098   -0.4500
      3 C3        -15.1616   -3.6991   57.8820 C.2     1  ZINC000561219098   -0.0100
      4 C4        -14.3013   -3.1747   56.9890 C.2     1  ZINC000561219098   -0.1700
      5 C5        -14.4789   -1.7683   57.0064 C.2     1  ZINC000561219098   -0.1100
      6 C6        -13.7434   -0.7757   56.1818 C.2     1  ZINC000561219098    0.1600
      7 N7        -14.0057    0.5130   56.1130 N.2     1  ZINC000561219098   -0.2700
      8 N8        -13.0952    1.1101   55.2325 N.pl3   1  ZINC000561219098   -0.4700
      9 C9        -12.2618    0.1333   54.7628 C.2     1  ZINC000561219098    0.0300
     10 C10       -11.1534    0.3148   53.8114 C.2     1  ZINC000561219098    0.5900
     11 O11       -11.3610    0.2435   52.6151 O.2     1  ZINC000561219098   -0.5000
     12 N12        -9.9086    0.5601   54.2659 N.am    1  ZINC000561219098   -0.6100
     13 C13        -9.6330    0.6508   55.7085 C.3     1  ZINC000561219098    0.0500
     14 C14        -8.8563    1.9459   55.9720 C.3     1  ZINC000561219098    0.0500
     15 O15        -7.7213    1.9988   55.1043 O.3     1  ZINC000561219098   -0.3700
     16 C16        -8.0492    2.0353   53.7133 C.3     1  ZINC000561219098    0.1200
     17 H17        -8.6918    2.8926   53.5130 H       1  ZINC000561219098    0.0900
     18 C18        -6.7853    2.1527   52.9011 C.ar    1  ZINC000561219098   -0.0500
     19 C19        -6.4678    1.1794   51.9729 C.ar    1  ZINC000561219098   -0.1000
     20 C20        -5.3070    1.2872   51.2263 C.ar    1  ZINC000561219098    0.1200
     21 F21        -4.9965    0.3360   50.3185 F       1  ZINC000561219098   -0.1200
     22 C22        -4.4641    2.3712   51.4103 C.ar    1  ZINC000561219098   -0.0600
     23 Cl23       -3.0083    2.5079   50.4744 Cl      1  ZINC000561219098   -0.0300
     24 C24        -4.7831    3.3445   52.3397 C.ar    1  ZINC000561219098   -0.0700
     25 C25        -5.9460    3.2381   53.0811 C.ar    1  ZINC000561219098   -0.0300
     26 Cl26       -6.3464    4.4603   54.2471 Cl      1  ZINC000561219098   -0.0400
     27 C27        -8.7836    0.7391   53.3343 C.3     1  ZINC000561219098    0.0900
     28 C28       -12.6486   -1.0519   55.3501 C.2     1  ZINC000561219098   -0.1700
     29 C29       -15.4538   -1.4995   57.9151 C.2     1  ZINC000561219098    0.0300
     30 H30       -17.8733   -2.9574   58.9963 H       1  ZINC000561219098    0.0800
     31 H31       -16.6853   -3.7098   60.0877 H       1  ZINC000561219098    0.0900
     32 H32       -16.9224   -1.9458   60.1103 H       1  ZINC000561219098    0.0900
     33 H33       -15.2748   -4.7492   58.1076 H       1  ZINC000561219098    0.1700
     34 H34       -13.6046   -3.7240   56.3731 H       1  ZINC000561219098    0.1400
     35 H35       -13.0621    2.0504   54.9969 H       1  ZINC000561219098    0.4400
     36 H36       -10.5723    0.6670   56.2613 H       1  ZINC000561219098    0.1000
     37 H37        -9.0363   -0.2056   56.0228 H       1  ZINC000561219098    0.0900
     38 H38        -9.5017    2.8029   55.7799 H       1  ZINC000561219098    0.0700
     39 H39        -8.5226    1.9656   57.0094 H       1  ZINC000561219098    0.1200
     40 H40        -7.1253    0.3344   51.8302 H       1  ZINC000561219098    0.1600
     41 H41        -4.1262    4.1895   52.4839 H       1  ZINC000561219098    0.1600
     42 H42        -8.0994   -0.1060   53.4097 H       1  ZINC000561219098    0.0900
     43 H43        -9.1618    0.8161   52.3149 H       1  ZINC000561219098    0.1100
     44 H44       -12.1952   -2.0194   55.1928 H       1  ZINC000561219098    0.1600
     45 H45       -15.8303   -0.5200   58.1705 H       1  ZINC000561219098    0.1700
@<TRIPOS>BOND
     1     1     2    1
     2     1    30    1
     3     1    31    1
     4     1    32    1
     5     2    29    1
     6     2     3    1
     7     3     4    2
     8     3    33    1
     9     4     5    1
    10     4    34    1
    11     5     6    1
    12     5    29    2
    13     6    28    1
    14     6     7    2
    15     7     8    1
    16     8     9    1
    17     8    35    1
    18     9    10    1
    19     9    28    2
    20    10    11    2
    21    10    12   am
    22    12    27    1
    23    12    13    1
    24    13    14    1
    25    13    36    1
    26    13    37    1
    27    14    15    1
    28    14    38    1
    29    14    39    1
    30    15    16    1
    31    16    17    1
    32    16    18    1
    33    16    27    1
    34    18    25   ar
    35    18    19   ar
    36    19    20   ar
    37    19    40    1
    38    20    21    1
    39    20    22   ar
    40    22    23    1
    41    22    24   ar
    42    24    25   ar
    43    24    41    1
    44    25    26    1
    45    27    42    1
    46    27    43    1
    47    28    44    1
    48    29    45    1
@<TRIPOS>SUBSTRUCTURE
     1 ZINC000561219098        1 TEMP              0 ****  ****    0 ROOT


##########                                Name:    ZINC000482139334
##########                DOCK_Rotatable_Bonds:                   4
##########                         Heavy_Atoms:                  26
##########                    Molecular_Weight:             348.376
##########                DOCK_Rotatable_Bonds:                   4
##########                       Formal_Charge:           0.0300002
##########                     HBond_Acceptors:                   5
##########                        HBond_Donors:                   1
##########                         Heavy_Atoms:                  26
##########                          Grid_Score:          -26.473654
##########                     Grid_vdw_energy:          -25.409527
##########                      Grid_es_energy:           -1.064126
##########           Internal_energy_repulsive:           10.330353

@<TRIPOS>MOLECULE
ZINC000482139334
 43 47 1 0 0
SMALL
USER_CHARGES


@<TRIPOS>ATOM
      1 O1         -8.8323   -1.8674   58.5767 O.2     1  ZINC000482139334   -0.4800
      2 C2         -9.7843   -1.1757   58.2832 C.2     1  ZINC000482139334    0.5500
      3 N3        -10.2772   -0.2941   59.1756 N.am    1  ZINC000482139334   -0.6100
      4 C4         -9.6998   -0.1821   60.4307 C.2     1  ZINC000482139334    0.4300
      5 N5        -10.3175    0.1940   61.5210 N.2     1  ZINC000482139334   -0.4800
      6 C6         -9.4269    0.1805   62.5472 C.2     1  ZINC000482139334    0.0400
      7 C7         -9.7082    0.5376   63.9595 C.ar    1  ZINC000482139334   -0.0500
      8 C8         -8.7703    0.2595   64.9512 C.ar    1  ZINC000482139334   -0.0800
      9 C9         -9.0367    0.5944   66.2637 C.ar    1  ZINC000482139334   -0.1300
     10 C10       -10.2324    1.2046   66.5964 C.ar    1  ZINC000482139334   -0.0800
     11 C11       -11.1689    1.4835   65.6175 C.ar    1  ZINC000482139334   -0.1600
     12 C12       -10.9111    1.1587   64.2990 C.ar    1  ZINC000482139334    0.1300
     13 F13       -11.8260    1.4313   63.3430 F       1  ZINC000482139334   -0.1200
     14 C14        -8.2356   -0.2196   62.0431 C.2     1  ZINC000482139334   -0.0600
     15 O15        -8.4180   -0.4475   60.7258 O.3     1  ZINC000482139334   -0.1800
     16 C16       -10.4121   -1.2974   56.9186 C.3     1  ZINC000482139334   -0.1800
     17 H17       -10.3937   -0.3931   56.3102 H       1  ZINC000482139334    0.1400
     18 C18       -10.2765   -2.6398   56.1948 C.3     1  ZINC000482139334   -0.1200
     19 C19       -11.6202   -2.2153   56.7789 C.3     1  ZINC000482139334   -0.0500
     20 C20       -12.2196   -2.9347   57.9989 C.3     1  ZINC000482139334   -0.0700
     21 C21       -13.5337   -3.5103   57.4257 C.3     1  ZINC000482139334   -0.0900
     22 C22       -13.8942   -2.6026   56.2685 C.ar    1  ZINC000482139334   -0.0800
     23 C23       -15.0929   -2.4413   55.5952 C.ar    1  ZINC000482139334   -0.1100
     24 C24       -15.1898   -1.5408   54.5522 C.ar    1  ZINC000482139334   -0.1100
     25 C25       -14.0861   -0.7975   54.1786 C.ar    1  ZINC000482139334   -0.1200
     26 C26       -12.8890   -0.9563   54.8489 C.ar    1  ZINC000482139334   -0.1000
     27 C27       -12.7888   -1.8578   55.8951 C.ar    1  ZINC000482139334   -0.0700
     28 H28       -11.0360    0.2621   58.9395 H       1  ZINC000482139334    0.4400
     29 H29        -7.8361   -0.2176   64.6936 H       1  ZINC000482139334    0.1300
     30 H30        -8.3096    0.3789   67.0327 H       1  ZINC000482139334    0.1400
     31 H31       -10.4358    1.4641   67.6249 H       1  ZINC000482139334    0.1400
     32 H32       -12.1012    1.9596   65.8832 H       1  ZINC000482139334    0.1400
     33 H33        -7.3135   -0.3375   62.5928 H       1  ZINC000482139334    0.2200
     34 H34       -10.1699   -2.6187   55.1103 H       1  ZINC000482139334    0.1200
     35 H35        -9.7334   -3.4349   56.7058 H       1  ZINC000482139334    0.1100
     36 H36       -11.5619   -3.7342   58.3398 H       1  ZINC000482139334    0.0800
     37 H37       -12.4239   -2.2287   58.8039 H       1  ZINC000482139334    0.0900
     38 H38       -13.3774   -4.5294   57.0723 H       1  ZINC000482139334    0.0800
     39 H39       -14.3179   -3.4877   58.1824 H       1  ZINC000482139334    0.0800
     40 H40       -15.9556   -3.0222   55.8863 H       1  ZINC000482139334    0.1200
     41 H41       -16.1267   -1.4180   54.0293 H       1  ZINC000482139334    0.1300
     42 H42       -14.1597   -0.0933   53.3630 H       1  ZINC000482139334    0.1300
     43 H43       -12.0272   -0.3751   54.5556 H       1  ZINC000482139334    0.1200
@<TRIPOS>BOND
     1     1     2    2
     2     2     3   am
     3     2    16    1
     4     3     4    1
     5     3    28    1
     6     4    15    1
     7     4     5    2
     8     5     6    1
     9     6     7    1
    10     6    14    2
    11     7    12   ar
    12     7     8   ar
    13     8     9   ar
    14     8    29    1
    15     9    10   ar
    16     9    30    1
    17    10    11   ar
    18    10    31    1
    19    11    12   ar
    20    11    32    1
    21    12    13    1
    22    14    15    1
    23    14    33    1
    24    16    17    1
    25    16    19    1
    26    16    18    1
    27    18    19    1
    28    18    34    1
    29    18    35    1
    30    19    27    1
    31    19    20    1
    32    20    21    1
    33    20    36    1
    34    20    37    1
    35    21    22    1
    36    21    38    1
    37    21    39    1
    38    22    27   ar
    39    22    23   ar
    40    23    24   ar
    41    23    40    1
    42    24    25   ar
    43    24    41    1
    44    25    26   ar
    45    25    42    1
    46    26    27   ar
    47    26    43    1
@<TRIPOS>SUBSTRUCTURE
     1 ZINC000482139334        1 TEMP              0 ****  ****    0 ROOT


##########                                Name:    ZINC000481838178
##########                DOCK_Rotatable_Bonds:                   6
##########                         Heavy_Atoms:                  29
##########                    Molecular_Weight:             408.524
##########                DOCK_Rotatable_Bonds:                   6
##########                       Formal_Charge:         -0.00999962
##########                     HBond_Acceptors:                   7
##########                        HBond_Donors:                   0
##########                         Heavy_Atoms:                  29
##########                          Grid_Score:          -26.473019
##########                     Grid_vdw_energy:          -25.449888
##########                      Grid_es_energy:           -1.023130
##########           Internal_energy_repulsive:            4.924326

@<TRIPOS>MOLECULE
ZINC000481838178
 53 57 1 0 0
SMALL
USER_CHARGES


@<TRIPOS>ATOM
      1 O1        -10.9486   -3.4687   57.4462 O.2     1  ZINC000481838178   -0.5200
      2 C2        -11.6148   -2.6328   56.8732 C.2     1  ZINC000481838178    0.5500
      3 C3        -11.0607   -1.9286   55.6615 C.3     1  ZINC000481838178   -0.1500
      4 S4        -10.1067   -0.4832   56.1874 S.3     1  ZINC000481838178    0.1000
      5 C5         -9.3432   -0.0481   54.6602 C.2     1  ZINC000481838178    0.1600
      6 N6         -9.3935   -0.7342   53.5406 N.2     1  ZINC000481838178   -0.2800
      7 N7         -8.7276   -0.1325   52.6210 N.2     1  ZINC000481838178   -0.2500
      8 C8         -8.2083    0.9790   53.0955 C.2     1  ZINC000481838178    0.2700
      9 C9         -7.3808    1.9438   52.3555 C.2     1  ZINC000481838178    0.0300
     10 C10        -6.0184    1.9708   52.3234 C.2     1  ZINC000481838178   -0.1300
     11 C11        -5.6540    3.0525   51.4986 C.2     1  ZINC000481838178   -0.2100
     12 C12        -6.7961    3.6272   51.0717 C.2     1  ZINC000481838178   -0.0100
     13 O13        -7.8372    2.9518   51.5862 O.3     1  ZINC000481838178   -0.1700
     14 N14        -8.5921    1.0706   54.4174 N.pl3   1  ZINC000481838178   -0.4100
     15 C15        -8.2728    2.0906   55.3241 C.ar    1  ZINC000481838178    0.1000
     16 C16        -8.7278    3.3838   55.1049 C.ar    1  ZINC000481838178   -0.0800
     17 C17        -8.4113    4.3869   56.0002 C.ar    1  ZINC000481838178   -0.1100
     18 C18        -7.6422    4.1041   57.1140 C.ar    1  ZINC000481838178   -0.1000
     19 C19        -7.1875    2.8170   57.3350 C.ar    1  ZINC000481838178   -0.1100
     20 C20        -7.5055    1.8086   56.4463 C.ar    1  ZINC000481838178   -0.0900
     21 N21       -12.8528   -2.3376   57.3166 N.am    1  ZINC000481838178   -0.6200
     22 C22       -13.5236   -2.9448   58.4971 C.3     1  ZINC000481838178    0.1000
     23 C23       -14.5260   -1.8654   58.9225 C.3     1  ZINC000481838178   -0.1100
     24 H24       -14.0206   -1.0359   59.4171 H       1  ZINC000481838178    0.0900
     25 C25       -15.7153   -2.3384   59.7370 C.3     1  ZINC000481838178   -0.1100
     26 C26       -16.6332   -1.1222   59.9446 C.3     1  ZINC000481838178   -0.1200
     27 C27       -17.0714   -0.5142   58.6161 C.3     1  ZINC000481838178   -0.1200
     28 C28       -15.8655   -0.1738   57.7239 C.3     1  ZINC000481838178   -0.1000
     29 C29       -15.0683   -1.4419   57.5243 C.3     1  ZINC000481838178   -0.1100
     30 H30       -15.7137   -2.2312   57.1385 H       1  ZINC000481838178    0.0900
     31 C31       -13.7787   -1.3462   56.7147 C.3     1  ZINC000481838178    0.1200
     32 H32       -10.4132   -2.6101   55.1096 H       1  ZINC000481838178    0.1300
     33 H33       -11.8817   -1.6082   55.0202 H       1  ZINC000481838178    0.1300
     34 H34        -5.3482    1.2939   52.8323 H       1  ZINC000481838178    0.1600
     35 H35        -4.6490    3.3632   51.2544 H       1  ZINC000481838178    0.1600
     36 H36        -6.8631    4.4858   50.4201 H       1  ZINC000481838178    0.2100
     37 H37        -9.3283    3.6054   54.2350 H       1  ZINC000481838178    0.1300
     38 H38        -8.7648    5.3931   55.8301 H       1  ZINC000481838178    0.1400
     39 H39        -7.3958    4.8900   57.8125 H       1  ZINC000481838178    0.1300
     40 H40        -6.5866    2.5992   58.2056 H       1  ZINC000481838178    0.1400
     41 H41        -7.1501    0.8035   56.6195 H       1  ZINC000481838178    0.1300
     42 H42       -14.0416   -3.8619   58.2162 H       1  ZINC000481838178    0.0800
     43 H43       -12.8036   -3.1364   59.2928 H       1  ZINC000481838178    0.0800
     44 H44       -16.2497   -3.1191   59.1956 H       1  ZINC000481838178    0.0700
     45 H45       -15.3778   -2.7181   60.7014 H       1  ZINC000481838178    0.0700
     46 H46       -17.5167   -1.4343   60.5015 H       1  ZINC000481838178    0.0600
     47 H47       -16.0987   -0.3677   60.5219 H       1  ZINC000481838178    0.0600
     48 H48       -17.7114   -1.2250   58.0934 H       1  ZINC000481838178    0.0600
     49 H49       -17.6380    0.3963   58.8112 H       1  ZINC000481838178    0.0700
     50 H50       -16.2104    0.2036   56.7612 H       1  ZINC000481838178    0.0700
     51 H51       -15.2397    0.5722   58.2139 H       1  ZINC000481838178    0.0700
     52 H52       -13.3663   -0.3395   56.7814 H       1  ZINC000481838178    0.0700
     53 H53       -13.9676   -1.6080   55.6736 H       1  ZINC000481838178    0.0700
@<TRIPOS>BOND
     1     1     2    2
     2     2     3    1
     3     2    21   am
     4     3     4    1
     5     3    32    1
     6     3    33    1
     7     4     5    1
     8     5    14    1
     9     5     6    2
    10     6     7    1
    11     7     8    2
    12     8     9    1
    13     8    14    1
    14     9    13    1
    15     9    10    2
    16    10    11    1
    17    10    34    1
    18    11    12    2
    19    11    35    1
    20    12    13    1
    21    12    36    1
    22    14    15    1
    23    15    20   ar
    24    15    16   ar
    25    16    17   ar
    26    16    37    1
    27    17    18   ar
    28    17    38    1
    29    18    19   ar
    30    18    39    1
    31    19    20   ar
    32    19    40    1
    33    20    41    1
    34    21    31    1
    35    21    22    1
    36    22    23    1
    37    22    42    1
    38    22    43    1
    39    23    24    1
    40    23    29    1
    41    23    25    1
    42    25    26    1
    43    25    44    1
    44    25    45    1
    45    26    27    1
    46    26    46    1
    47    26    47    1
    48    27    28    1
    49    27    48    1
    50    27    49    1
    51    28    29    1
    52    28    50    1
    53    28    51    1
    54    29    30    1
    55    29    31    1
    56    31    52    1
    57    31    53    1
@<TRIPOS>SUBSTRUCTURE
     1 ZINC000481838178        1 TEMP              0 ****  ****    0 ROOT


##########                                Name:    ZINC001345266033
##########                DOCK_Rotatable_Bonds:                   4
##########                         Heavy_Atoms:                  29
##########                    Molecular_Weight:               389.5
##########                DOCK_Rotatable_Bonds:                   4
##########                       Formal_Charge:          -0.0100001
##########                     HBond_Acceptors:                   6
##########                        HBond_Donors:                   0
##########                         Heavy_Atoms:                  29
##########                          Grid_Score:          -26.465376
##########                     Grid_vdw_energy:          -25.464046
##########                      Grid_es_energy:           -1.001329
##########           Internal_energy_repulsive:            7.760104

@<TRIPOS>MOLECULE
ZINC001345266033
 56 61 1 0 0
SMALL
USER_CHARGES


@<TRIPOS>ATOM
      1 C1        -12.3633    3.8975   49.1983 C.ar    1  ZINC001345266033   -0.1100
      2 C2        -12.3919    3.5333   50.5420 C.ar    1  ZINC001345266033   -0.0900
      3 C3        -11.3177    3.7577   51.3530 C.ar    1  ZINC001345266033   -0.1100
      4 C4        -10.1737    4.3612   50.8254 C.ar    1  ZINC001345266033    0.0000
      5 C5        -10.1399    4.7335   49.4569 C.ar    1  ZINC001345266033   -0.1100
      6 C6        -11.2633    4.4879   48.6523 C.ar    1  ZINC001345266033   -0.0900
      7 C7         -8.9772    5.3381   48.9524 C.ar    1  ZINC001345266033    0.1700
      8 N8         -7.9414    5.5561   49.7262 N.ar    1  ZINC001345266033   -0.4800
      9 C9         -7.9031    5.2356   51.0088 C.ar    1  ZINC001345266033    0.0900
     10 C10        -8.9859    4.6317   51.6346 C.ar    1  ZINC001345266033   -0.0700
     11 C11        -8.9396    4.2757   53.0655 C.2     1  ZINC001345266033    0.2300
     12 N12        -9.0527    5.1027   54.0804 N.2     1  ZINC001345266033   -0.2600
     13 N13        -8.9669    4.4532   55.1860 N.2     1  ZINC001345266033   -0.3000
     14 C14        -8.7939    3.1729   54.9455 C.2     1  ZINC001345266033    0.3600
     15 N15        -8.6603    2.1714   55.8908 N.3     1  ZINC001345266033   -0.4600
     16 C16        -7.5804    2.4807   56.8358 C.3     1  ZINC001345266033    0.0600
     17 C17        -7.3064    1.2685   57.7282 C.3     1  ZINC001345266033   -0.1100
     18 C18        -8.5625    0.9526   58.5490 C.3     1  ZINC001345266033   -0.0800
     19 C19        -9.7435    0.7866   57.5868 C.3     1  ZINC001345266033   -0.1300
     20 C20       -10.0806   -0.6260   57.1122 C.3     1  ZINC001345266033   -0.1600
     21 C21       -10.9957    0.0860   58.1109 C.3     1  ZINC001345266033   -0.1700
     22 C22        -9.9306    1.9370   56.5933 C.3     1  ZINC001345266033    0.1100
     23 N23        -8.7759    3.0138   53.5901 N.pl3   1  ZINC001345266033   -0.4600
     24 C24        -8.6087    1.7616   52.8481 C.3     1  ZINC001345266033    0.1000
     25 C25        -7.1219    1.4084   52.7726 C.3     1  ZINC001345266033   -0.1400
     26 H26        -6.6388    1.5881   53.7330 H       1  ZINC001345266033    0.1000
     27 C27        -6.4272    2.2246   51.6555 C.3     1  ZINC001345266033   -0.1500
     28 C28        -5.4804    1.1716   51.0250 C.3     1  ZINC001345266033    0.0500
     29 O29        -6.2517   -0.0479   51.0756 O.3     1  ZINC001345266033   -0.3700
     30 C30        -6.9375   -0.0597   52.3424 C.3     1  ZINC001345266033    0.0300
     31 H31       -13.2257    3.7047   48.5774 H       1  ZINC001345266033    0.1300
     32 H32       -13.2772    3.0667   50.9483 H       1  ZINC001345266033    0.1300
     33 H33       -11.3517    3.4715   52.3938 H       1  ZINC001345266033    0.1600
     34 H34       -11.2557    4.7642   47.6083 H       1  ZINC001345266033    0.1400
     35 H35        -8.9355    5.6271   47.9126 H       1  ZINC001345266033    0.1700
     36 H36        -7.0119    5.4474   51.5809 H       1  ZINC001345266033    0.1700
     37 H37        -6.6765    2.7344   56.2821 H       1  ZINC001345266033    0.0700
     38 H38        -7.8735    3.3279   57.4558 H       1  ZINC001345266033    0.0500
     39 H39        -7.0515    0.4095   57.1075 H       1  ZINC001345266033    0.0800
     40 H40        -6.4784    1.4913   58.4009 H       1  ZINC001345266033    0.0800
     41 H41        -8.4123    0.0284   59.1071 H       1  ZINC001345266033    0.0700
     42 H42        -8.7646    1.7717   59.2390 H       1  ZINC001345266033    0.0700
     43 H43       -10.4430   -0.7408   56.0906 H       1  ZINC001345266033    0.0900
     44 H44        -9.4651   -1.4435   57.4877 H       1  ZINC001345266033    0.0900
     45 H45       -10.9823   -0.2630   59.1435 H       1  ZINC001345266033    0.1000
     46 H46       -11.9602    0.4397   57.7464 H       1  ZINC001345266033    0.1000
     47 H47       -10.2226    2.8393   57.1305 H       1  ZINC001345266033    0.0600
     48 H48       -10.7038    1.6736   55.8714 H       1  ZINC001345266033    0.0800
     49 H49        -9.1465    0.9624   53.3581 H       1  ZINC001345266033    0.1100
     50 H50        -9.0055    1.8809   51.8400 H       1  ZINC001345266033    0.1100
     51 H51        -7.1536    2.5813   50.9253 H       1  ZINC001345266033    0.0800
     52 H52        -5.8602    3.0552   52.0759 H       1  ZINC001345266033    0.0900
     53 H53        -5.2459    1.4350   49.9936 H       1  ZINC001345266033    0.1000
     54 H54        -4.5686    1.0738   51.6141 H       1  ZINC001345266033    0.0600
     55 H55        -6.3407   -0.5936   53.0818 H       1  ZINC001345266033    0.0600
     56 H56        -7.9105   -0.5387   52.2326 H       1  ZINC001345266033    0.0900
@<TRIPOS>BOND
     1     1     6   ar
     2     1     2   ar
     3     1    31    1
     4     2     3   ar
     5     2    32    1
     6     3     4   ar
     7     3    33    1
     8     4    10   ar
     9     4     5   ar
    10     5     6   ar
    11     5     7   ar
    12     6    34    1
    13     7     8   ar
    14     7    35    1
    15     8     9   ar
    16     9    10   ar
    17     9    36    1
    18    10    11    1
    19    11    23    1
    20    11    12    2
    21    12    13    1
    22    13    14    2
    23    14    15    1
    24    14    23    1
    25    15    22    1
    26    15    16    1
    27    16    17    1
    28    16    37    1
    29    16    38    1
    30    17    18    1
    31    17    39    1
    32    17    40    1
    33    18    19    1
    34    18    41    1
    35    18    42    1
    36    19    21    1
    37    19    20    1
    38    19    22    1
    39    20    21    1
    40    20    43    1
    41    20    44    1
    42    21    45    1
    43    21    46    1
    44    22    47    1
    45    22    48    1
    46    23    24    1
    47    24    25    1
    48    24    49    1
    49    24    50    1
    50    25    26    1
    51    25    30    1
    52    25    27    1
    53    27    28    1
    54    27    51    1
    55    27    52    1
    56    28    29    1
    57    28    53    1
    58    28    54    1
    59    29    30    1
    60    30    55    1
    61    30    56    1
@<TRIPOS>SUBSTRUCTURE
     1 ZINC001345266033        1 TEMP              0 ****  ****    0 ROOT


##########                                Name:    ZINC000422507946
##########                DOCK_Rotatable_Bonds:                   7
##########                         Heavy_Atoms:                  25
##########                    Molecular_Weight:             364.484
##########                DOCK_Rotatable_Bonds:                   7
##########                       Formal_Charge:          0.00999952
##########                     HBond_Acceptors:                   6
##########                        HBond_Donors:                   1
##########                         Heavy_Atoms:                  25
##########                          Grid_Score:          -26.450020
##########                     Grid_vdw_energy:          -24.681978
##########                      Grid_es_energy:           -1.768041
##########           Internal_energy_repulsive:           50.215412

@<TRIPOS>MOLECULE
ZINC000422507946
 50 52 1 0 0
SMALL
USER_CHARGES


@<TRIPOS>ATOM
      1 C1          2.3914    3.3085   57.6242 C.3     1  ZINC000422507946   -0.1400
      2 C2          1.1813    2.4153   57.9046 C.3     1  ZINC000422507946   -0.0400
      3 H3          1.5066    1.4201   58.2076 H       1  ZINC000422507946    0.1100
      4 C4          0.2764    2.3289   56.6580 C.3     1  ZINC000422507946   -0.1400
      5 C5         -1.1883    2.2040   57.1124 C.3     1  ZINC000422507946    0.1400
      6 H6         -1.3657    1.2125   57.5289 H       1  ZINC000422507946    0.1100
      7 N7         -2.0858    2.4380   55.9783 N.am    1  ZINC000422507946   -0.6900
      8 C8         -2.0757    3.6278   55.3453 C.2     1  ZINC000422507946    0.5100
      9 O9         -1.3221    4.5047   55.7136 O.2     1  ZINC000422507946   -0.5000
     10 C10        -2.9925    3.8670   54.1896 C.2     1  ZINC000422507946    0.5100
     11 O11        -2.6106    3.6534   53.0578 O.2     1  ZINC000422507946   -0.5200
     12 N12        -4.2436    4.3201   54.4045 N.am    1  ZINC000422507946   -0.5700
     13 C13        -5.1423    4.5546   53.2716 C.3     1  ZINC000422507946    0.1400
     14 C14        -5.3942    3.2544   52.5525 C.ar    1  ZINC000422507946   -0.0800
     15 C15        -4.7529    2.9908   51.3568 C.ar    1  ZINC000422507946   -0.1100
     16 C16        -4.9829    1.7983   50.6959 C.ar    1  ZINC000422507946   -0.0900
     17 C17        -5.8543    0.8686   51.2303 C.ar    1  ZINC000422507946   -0.1500
     18 C18        -6.4970    1.1315   52.4284 C.ar    1  ZINC000422507946    0.1000
     19 F19        -7.3492    0.2232   52.9518 F       1  ZINC000422507946   -0.1400
     20 C20        -6.2619    2.3236   53.0918 C.ar    1  ZINC000422507946   -0.1500
     21 C21        -4.7047    4.5779   55.7709 C.3     1  ZINC000422507946    0.1400
     22 C22        -5.7841    5.6800   55.7653 C.3     1  ZINC000422507946   -0.1200
     23 C23        -7.1226    4.9008   55.7496 C.3     1  ZINC000422507946   -0.1300
     24 C24        -6.8272    3.6955   56.6766 C.3     1  ZINC000422507946   -0.1200
     25 C25        -5.3680    3.3161   56.3503 C.3     1  ZINC000422507946   -0.1600
     26 C26        -1.4164    3.2849   58.2016 C.3     1  ZINC000422507946   -0.0900
     27 S27         0.1227    3.1624   59.1983 S.3     1  ZINC000422507946   -0.2700
     28 H28         3.0046    3.3821   58.5224 H       1  ZINC000422507946    0.0700
     29 H29         2.9818    2.8774   56.8157 H       1  ZINC000422507946    0.0700
     30 H30         2.0502    4.3025   57.3348 H       1  ZINC000422507946    0.0700
     31 H31         0.3969    3.2292   56.0554 H       1  ZINC000422507946    0.0900
     32 H32         0.5514    1.4561   56.0661 H       1  ZINC000422507946    0.0900
     33 H33        -2.6873    1.7365   55.6831 H       1  ZINC000422507946    0.4100
     34 H34        -6.0876    4.9578   53.6351 H       1  ZINC000422507946    0.1100
     35 H35        -4.6837    5.2665   52.5853 H       1  ZINC000422507946    0.1000
     36 H36        -4.0719    3.7171   50.9382 H       1  ZINC000422507946    0.1400
     37 H37        -4.4815    1.5936   49.7616 H       1  ZINC000422507946    0.1300
     38 H38        -6.0343   -0.0624   50.7135 H       1  ZINC000422507946    0.1400
     39 H39        -6.7623    2.5294   54.0265 H       1  ZINC000422507946    0.1400
     40 H40        -3.8652    4.8796   56.3973 H       1  ZINC000422507946    0.1100
     41 H41        -5.7093    6.2919   56.6642 H       1  ZINC000422507946    0.0800
     42 H42        -5.6926    6.2990   54.8727 H       1  ZINC000422507946    0.0600
     43 H43        -7.9296    5.5111   56.1550 H       1  ZINC000422507946    0.0700
     44 H44        -7.3612    4.5631   54.7411 H       1  ZINC000422507946    0.0600
     45 H45        -6.9209    3.9868   57.7227 H       1  ZINC000422507946    0.0700
     46 H46        -7.4970    2.8662   56.4490 H       1  ZINC000422507946    0.0700
     47 H47        -5.3467    2.5119   55.6149 H       1  ZINC000422507946    0.0900
     48 H48        -4.8509    3.0059   57.2583 H       1  ZINC000422507946    0.0800
     49 H49        -1.5117    4.2738   57.7531 H       1  ZINC000422507946    0.1000
     50 H50        -2.2904    3.0466   58.8078 H       1  ZINC000422507946    0.1100
@<TRIPOS>BOND
     1     1     2    1
     2     1    28    1
     3     1    29    1
     4     1    30    1
     5     2     3    1
     6     2    27    1
     7     2     4    1
     8     4     5    1
     9     4    31    1
    10     4    32    1
    11     5     6    1
    12     5     7    1
    13     5    26    1
    14     7     8   am
    15     7    33    1
    16     8     9    2
    17     8    10    1
    18    10    11    2
    19    10    12   am
    20    12    13    1
    21    12    21    1
    22    13    14    1
    23    13    34    1
    24    13    35    1
    25    14    20   ar
    26    14    15   ar
    27    15    16   ar
    28    15    36    1
    29    16    17   ar
    30    16    37    1
    31    17    18   ar
    32    17    38    1
    33    18    19    1
    34    18    20   ar
    35    20    39    1
    36    21    25    1
    37    21    22    1
    38    21    40    1
    39    22    23    1
    40    22    41    1
    41    22    42    1
    42    23    24    1
    43    23    43    1
    44    23    44    1
    45    24    25    1
    46    24    45    1
    47    24    46    1
    48    25    47    1
    49    25    48    1
    50    26    27    1
    51    26    49    1
    52    26    50    1
@<TRIPOS>SUBSTRUCTURE
     1 ZINC000422507946        1 TEMP              0 ****  ****    0 ROOT


##########                                Name:    ZINC000464706598
##########                DOCK_Rotatable_Bonds:                   4
##########                         Heavy_Atoms:                  26
##########                    Molecular_Weight:             412.286
##########                DOCK_Rotatable_Bonds:                   4
##########                       Formal_Charge:           0.0100001
##########                     HBond_Acceptors:                   5
##########                        HBond_Donors:                   0
##########                         Heavy_Atoms:                  26
##########                          Grid_Score:          -26.392838
##########                     Grid_vdw_energy:          -27.184494
##########                      Grid_es_energy:            0.791656
##########           Internal_energy_repulsive:           58.026409

@<TRIPOS>MOLECULE
ZINC000464706598
 44 47 1 0 0
SMALL
USER_CHARGES


@<TRIPOS>ATOM
      1 O1         -5.8191    1.8281   52.6098 O.2     1  ZINC000464706598   -0.5000
      2 C2         -7.0177    2.0299   52.5703 C.2     1  ZINC000464706598    0.5900
      3 C3         -7.9548    1.0017   53.0580 C.2     1  ZINC000464706598   -0.2800
      4 C4         -8.7789    1.1012   54.1613 C.2     1  ZINC000464706598    0.1300
      5 N5         -9.4682   -0.0505   54.2531 N.pl3   1  ZINC000464706598   -0.3100
      6 C6        -10.4172   -0.3612   55.2368 C.ar    1  ZINC000464706598    0.1700
      7 C7        -10.8078   -1.6788   55.4347 C.ar    1  ZINC000464706598   -0.1300
      8 C8        -11.7428   -1.9824   56.4048 C.ar    1  ZINC000464706598   -0.0600
      9 C9        -12.2905   -0.9747   57.1788 C.ar    1  ZINC000464706598   -0.1000
     10 Br10      -13.5709   -1.3938   58.5057 Br      1  ZINC000464706598   -0.0400
     11 C11       -11.9026    0.3391   56.9839 C.ar    1  ZINC000464706598   -0.0700
     12 C12       -10.9642    0.6474   56.0187 C.ar    1  ZINC000464706598   -0.1100
     13 N13        -9.0779   -0.8856   53.2002 N.2     1  ZINC000464706598   -0.2800
     14 C14        -8.1822   -0.2679   52.4801 C.2     1  ZINC000464706598    0.0700
     15 N15        -7.4892    3.1959   52.0860 N.am    1  ZINC000464706598   -0.6100
     16 C16        -8.9349    3.4654   52.0340 C.3     1  ZINC000464706598    0.0400
     17 C17        -9.2877    3.9395   50.6195 C.3     1  ZINC000464706598    0.0500
     18 O18        -8.4269    5.0218   50.2573 O.3     1  ZINC000464706598   -0.3700
     19 C19        -7.0414    4.6738   50.2008 C.3     1  ZINC000464706598    0.0500
     20 C20        -6.5731    4.2396   51.5991 C.3     1  ZINC000464706598    0.1600
     21 H21        -6.5906    5.0952   52.2742 H       1  ZINC000464706598    0.0900
     22 C22        -5.1737    3.6867   51.5168 C.ar    1  ZINC000464706598   -0.0500
     23 C23        -4.2353    4.0358   52.4700 C.ar    1  ZINC000464706598   -0.1000
     24 C24        -2.9517    3.5287   52.3946 C.ar    1  ZINC000464706598   -0.1100
     25 C25        -2.6064    2.6720   51.3661 C.ar    1  ZINC000464706598   -0.1200
     26 C26        -3.5449    2.3220   50.4134 C.ar    1  ZINC000464706598   -0.1100
     27 C27        -4.8298    2.8258   50.4913 C.ar    1  ZINC000464706598   -0.1000
     28 H28        -8.8555    1.9472   54.8281 H       1  ZINC000464706598    0.1900
     29 H29       -10.3811   -2.4657   54.8304 H       1  ZINC000464706598    0.1400
     30 H30       -12.0470   -3.0071   56.5591 H       1  ZINC000464706598    0.1500
     31 H31       -12.3314    1.1237   57.5895 H       1  ZINC000464706598    0.1500
     32 H32       -10.6614    1.6729   55.8671 H       1  ZINC000464706598    0.1500
     33 H33        -7.6949   -0.6607   51.6000 H       1  ZINC000464706598    0.2100
     34 H34        -9.4867    2.5539   52.2640 H       1  ZINC000464706598    0.1200
     35 H35        -9.1898    4.2415   52.7556 H       1  ZINC000464706598    0.0800
     36 H36        -9.1548    3.1175   49.9162 H       1  ZINC000464706598    0.0600
     37 H37       -10.3244    4.2754   50.5962 H       1  ZINC000464706598    0.1100
     38 H38        -6.9001    3.8544   49.4960 H       1  ZINC000464706598    0.0600
     39 H39        -6.4618    5.5381   49.8763 H       1  ZINC000464706598    0.1100
     40 H40        -4.5052    4.7052   53.2735 H       1  ZINC000464706598    0.1100
     41 H41        -2.2184    3.8020   53.1389 H       1  ZINC000464706598    0.1200
     42 H42        -1.6032    2.2762   51.3068 H       1  ZINC000464706598    0.1200
     43 H43        -3.2750    1.6530   49.6097 H       1  ZINC000464706598    0.1200
     44 H44        -5.5631    2.5524   49.7470 H       1  ZINC000464706598    0.1100
@<TRIPOS>BOND
     1     1     2    2
     2     2     3    1
     3     2    15   am
     4     3    14    1
     5     3     4    2
     6     4     5    1
     7     4    28    1
     8     5     6    1
     9     5    13    1
    10     6    12   ar
    11     6     7   ar
    12     7     8   ar
    13     7    29    1
    14     8     9   ar
    15     8    30    1
    16     9    10    1
    17     9    11   ar
    18    11    12   ar
    19    11    31    1
    20    12    32    1
    21    13    14    2
    22    14    33    1
    23    15    20    1
    24    15    16    1
    25    16    17    1
    26    16    34    1
    27    16    35    1
    28    17    18    1
    29    17    36    1
    30    17    37    1
    31    18    19    1
    32    19    20    1
    33    19    38    1
    34    19    39    1
    35    20    21    1
    36    20    22    1
    37    22    27   ar
    38    22    23   ar
    39    23    24   ar
    40    23    40    1
    41    24    25   ar
    42    24    41    1
    43    25    26   ar
    44    25    42    1
    45    26    27   ar
    46    26    43    1
    47    27    44    1
@<TRIPOS>SUBSTRUCTURE
     1 ZINC000464706598        1 TEMP              0 ****  ****    0 ROOT


##########                                Name:    ZINC000176150038
##########                DOCK_Rotatable_Bonds:                   4
##########                         Heavy_Atoms:                  23
##########                    Molecular_Weight:             333.712
##########                DOCK_Rotatable_Bonds:                   4
##########                       Formal_Charge:        -2.23517e-07
##########                     HBond_Acceptors:                  10
##########                        HBond_Donors:                   1
##########                         Heavy_Atoms:                  23
##########                          Grid_Score:          -26.357296
##########                     Grid_vdw_energy:          -24.223722
##########                      Grid_es_energy:           -2.133573
##########           Internal_energy_repulsive:            7.245701

@<TRIPOS>MOLECULE
ZINC000176150038
 32 34 1 0 0
SMALL
USER_CHARGES


@<TRIPOS>ATOM
      1 C1         -2.3545    2.7615   56.1689 C.3     1  ZINC000176150038   -0.0900
      2 C2         -2.7912    3.7992   57.1706 C.2     1  ZINC000176150038    0.2600
      3 N3         -3.8724    4.5316   57.1068 N.2     1  ZINC000176150038   -0.3300
      4 N4         -3.9479    5.3167   58.1202 N.2     1  ZINC000176150038   -0.0300
      5 N5         -2.9315    5.1433   58.8945 N.2     1  ZINC000176150038   -0.0700
      6 N6         -2.1414    4.1414   58.3040 N.pl3   1  ZINC000176150038   -0.3300
      7 C7         -0.9328    3.6155   58.7850 C.ar    1  ZINC000176150038    0.1400
      8 C8          0.1971    4.4193   58.8501 C.ar    1  ZINC000176150038   -0.1000
      9 C9          1.3885    3.9031   59.3240 C.ar    1  ZINC000176150038   -0.1100
     10 C10         1.4588    2.5845   59.7347 C.ar    1  ZINC000176150038    0.1000
     11 F11         2.6245    2.0827   60.1979 F       1  ZINC000176150038   -0.1200
     12 C12         0.3291    1.7746   59.6714 C.ar    1  ZINC000176150038    0.1300
     13 N13         0.3994    0.4402   60.0868 N.am    1  ZINC000176150038   -0.6500
     14 C14         0.2133    0.1278   61.3846 C.2     1  ZINC000176150038    0.5700
     15 O15        -0.0157    1.0048   62.1939 O.2     1  ZINC000176150038   -0.4800
     16 C16         0.2879   -1.2866   61.8250 C.ar    1  ZINC000176150038    0.1400
     17 N17        -0.2013   -2.2604   61.0603 N.ar    1  ZINC000176150038   -0.4800
     18 C18        -0.1367   -3.5160   61.4471 C.ar    1  ZINC000176150038    0.3000
     19 N19         0.4088   -3.8655   62.5960 N.ar    1  ZINC000176150038   -0.4800
     20 C20         0.9175   -2.9596   63.4130 C.ar    1  ZINC000176150038    0.1700
     21 C21         0.8779   -1.6202   63.0465 C.ar    1  ZINC000176150038   -0.1000
     22 Cl22        1.5330   -0.3925   64.0845 Cl      1  ZINC000176150038    0.0100
     23 C23        -0.8682    2.2933   59.2009 C.ar    1  ZINC000176150038   -0.0800
     24 H24        -2.7719    1.7928   56.4439 H       1  ZINC000176150038    0.1100
     25 H25        -2.7096    3.0418   55.1772 H       1  ZINC000176150038    0.1100
     26 H26        -1.2664    2.6993   56.1611 H       1  ZINC000176150038    0.0900
     27 H27         0.1452    5.4493   58.5297 H       1  ZINC000176150038    0.1500
     28 H28         2.2662    4.5306   59.3733 H       1  ZINC000176150038    0.1600
     29 H29         0.5821   -0.2599   59.4408 H       1  ZINC000176150038    0.4300
     30 H30        -0.5427   -4.2836   60.8049 H       1  ZINC000176150038    0.2200
     31 H31         1.3617   -3.2572   64.3515 H       1  ZINC000176150038    0.1900
     32 H32        -1.7466    1.6670   59.1508 H       1  ZINC000176150038    0.1700
@<TRIPOS>BOND
     1     1     2    1
     2     1    24    1
     3     1    25    1
     4     1    26    1
     5     2     6    1
     6     2     3    2
     7     3     4    1
     8     4     5    2
     9     5     6    1
    10     6     7    1
    11     7    23   ar
    12     7     8   ar
    13     8     9   ar
    14     8    27    1
    15     9    10   ar
    16     9    28    1
    17    10    11    1
    18    10    12   ar
    19    12    13    1
    20    12    23   ar
    21    13    14   am
    22    13    29    1
    23    14    15    2
    24    14    16    1
    25    16    21   ar
    26    16    17   ar
    27    17    18   ar
    28    18    19   ar
    29    18    30    1
    30    19    20   ar
    31    20    21   ar
    32    20    31    1
    33    21    22    1
    34    23    32    1
@<TRIPOS>SUBSTRUCTURE
     1 ZINC000176150038        1 TEMP              0 ****  ****    0 ROOT


##########                                Name:    ZINC000962855438
##########                DOCK_Rotatable_Bonds:                   7
##########                         Heavy_Atoms:                  27
##########                    Molecular_Weight:             370.448
##########                DOCK_Rotatable_Bonds:                   7
##########                       Formal_Charge:           0.0300005
##########                     HBond_Acceptors:                   6
##########                        HBond_Donors:                   2
##########                         Heavy_Atoms:                  27
##########                          Grid_Score:          -26.253508
##########                     Grid_vdw_energy:          -24.701305
##########                      Grid_es_energy:           -1.552203
##########           Internal_energy_repulsive:            9.821225

@<TRIPOS>MOLECULE
ZINC000962855438
 53 56 1 0 0
SMALL
USER_CHARGES


@<TRIPOS>ATOM
      1 C1          2.6580    0.0830   59.4733 C.3     1  ZINC000962855438   -0.1100
      2 C2          1.3972   -0.0015   60.2945 C.2     1  ZINC000962855438   -0.1700
      3 C3          0.2939    0.9394   60.0473 C.2     1  ZINC000962855438    0.5600
      4 O4         -0.5534    1.1208   60.9007 O.2     1  ZINC000962855438   -0.5400
      5 N5          0.2220    1.6007   58.8751 N.am    1  ZINC000962855438   -0.7100
      6 C6         -0.8778    2.5366   58.6282 C.3     1  ZINC000962855438    0.1500
      7 H7         -1.8408    2.0639   58.8208 H       1  ZINC000962855438    0.1200
      8 C8         -0.8141    3.1002   57.1867 C.3     1  ZINC000962855438    0.1000
      9 N9         -1.5154    4.3951   57.2566 N.am    1  ZINC000962855438   -0.6100
     10 C10        -2.1078    5.0243   56.2224 C.2     1  ZINC000962855438    0.5800
     11 O11        -2.6602    6.0933   56.3969 O.2     1  ZINC000962855438   -0.5200
     12 C12        -2.0861    4.4158   54.8785 C.ar    1  ZINC000962855438   -0.1500
     13 C13        -0.8752    4.2506   54.2060 C.ar    1  ZINC000962855438   -0.0600
     14 C14        -0.8519    3.6833   52.9500 C.ar    1  ZINC000962855438   -0.1500
     15 C15        -2.0343    3.2788   52.3508 C.ar    1  ZINC000962855438   -0.0500
     16 C16        -3.2355    3.4398   53.0046 C.ar    1  ZINC000962855438   -0.1800
     17 C17        -3.2858    3.9961   54.2757 C.ar    1  ZINC000962855438    0.1600
     18 O18        -4.5602    4.0425   54.7443 O.3     1  ZINC000962855438   -0.2800
     19 C19        -5.4755    3.9290   53.6413 C.3     1  ZINC000962855438    0.0700
     20 H20        -5.7297    4.9130   53.2475 H       1  ZINC000962855438    0.0900
     21 C21        -6.7376    3.1721   54.0597 C.3     1  ZINC000962855438   -0.1500
     22 C22        -4.6621    3.1119   52.6072 C.3     1  ZINC000962855438   -0.1100
     23 C23        -1.4622    4.8860   58.6414 C.3     1  ZINC000962855438    0.0700
     24 C24        -0.7116    3.8258   59.4754 C.3     1  ZINC000962855438    0.0900
     25 H25        -1.1746    3.7071   60.4551 H       1  ZINC000962855438    0.0900
     26 O26         0.6684    4.1719   59.6091 O.3     1  ZINC000962855438   -0.5600
     27 C27         1.2820   -0.9271   61.2426 C.2     1  ZINC000962855438   -0.0600
     28 C28         2.1472   -2.0381   61.7989 C.3     1  ZINC000962855438   -0.1000
     29 C29         0.8485   -2.7454   62.2170 C.3     1  ZINC000962855438   -0.1400
     30 C30         0.2299   -1.3359   62.2516 C.3     1  ZINC000962855438   -0.1100
     31 H31         3.3643    0.7552   59.9605 H       1  ZINC000962855438    0.0700
     32 H32         3.1015   -0.9088   59.3855 H       1  ZINC000962855438    0.0700
     33 H33         2.4198    0.4639   58.4801 H       1  ZINC000962855438    0.0700
     34 H34         0.8985    1.4569   58.1949 H       1  ZINC000962855438    0.4100
     35 H35         0.2221    3.2460   56.8817 H       1  ZINC000962855438    0.0800
     36 H36        -1.3234    2.4299   56.4945 H       1  ZINC000962855438    0.0900
     37 H37         0.0465    4.5683   54.6705 H       1  ZINC000962855438    0.1400
     38 H38         0.0875    3.5544   52.4329 H       1  ZINC000962855438    0.1400
     39 H39        -2.0137    2.8355   51.3662 H       1  ZINC000962855438    0.1300
     40 H40        -7.2438    3.7207   54.8539 H       1  ZINC000962855438    0.0700
     41 H41        -7.4043    3.0757   53.2028 H       1  ZINC000962855438    0.0800
     42 H42        -6.4639    2.1806   54.4204 H       1  ZINC000962855438    0.0700
     43 H43        -4.8680    3.4527   51.5926 H       1  ZINC000962855438    0.1000
     44 H44        -4.8645    2.0456   52.7071 H       1  ZINC000962855438    0.1000
     45 H45        -0.9265    5.8345   58.6782 H       1  ZINC000962855438    0.0800
     46 H46        -2.4731    5.0136   59.0285 H       1  ZINC000962855438    0.0800
     47 H47         0.8214    5.0067   60.0724 H       1  ZINC000962855438    0.3900
     48 H48         2.7099   -2.5758   61.0358 H       1  ZINC000962855438    0.0900
     49 H49         2.7654   -1.7285   62.6416 H       1  ZINC000962855438    0.1000
     50 H50         0.4327   -3.3943   61.4462 H       1  ZINC000962855438    0.0900
     51 H51         0.9029   -3.2238   63.1949 H       1  ZINC000962855438    0.0800
     52 H52         0.3300   -0.8397   63.2170 H       1  ZINC000962855438    0.1000
     53 H53        -0.7860   -1.2962   61.8585 H       1  ZINC000962855438    0.0800
@<TRIPOS>BOND
     1     1     2    1
     2     1    31    1
     3     1    32    1
     4     1    33    1
     5     2     3    1
     6     2    27    2
     7     3     4    2
     8     3     5   am
     9     5     6    1
    10     5    34    1
    11     6     7    1
    12     6    24    1
    13     6     8    1
    14     8     9    1
    15     8    35    1
    16     8    36    1
    17     9    10   am
    18     9    23    1
    19    10    11    2
    20    10    12    1
    21    12    17   ar
    22    12    13   ar
    23    13    14   ar
    24    13    37    1
    25    14    15   ar
    26    14    38    1
    27    15    16   ar
    28    15    39    1
    29    16    22    1
    30    16    17   ar
    31    17    18    1
    32    18    19    1
    33    19    20    1
    34    19    21    1
    35    19    22    1
    36    21    40    1
    37    21    41    1
    38    21    42    1
    39    22    43    1
    40    22    44    1
    41    23    24    1
    42    23    45    1
    43    23    46    1
    44    24    25    1
    45    24    26    1
    46    26    47    1
    47    27    30    1
    48    27    28    1
    49    28    29    1
    50    28    48    1
    51    28    49    1
    52    29    30    1
    53    29    50    1
    54    29    51    1
    55    30    52    1
    56    30    53    1
@<TRIPOS>SUBSTRUCTURE
     1 ZINC000962855438        1 TEMP              0 ****  ****    0 ROOT


##########                                Name:    ZINC000371438955
##########                DOCK_Rotatable_Bonds:                   4
##########                         Heavy_Atoms:                  25
##########                    Molecular_Weight:             387.499
##########                DOCK_Rotatable_Bonds:                   4
##########                       Formal_Charge:          -0.0299995
##########                     HBond_Acceptors:                   9
##########                        HBond_Donors:                   1
##########                         Heavy_Atoms:                  25
##########                          Grid_Score:          -26.226913
##########                     Grid_vdw_energy:          -24.322039
##########                      Grid_es_energy:           -1.904875
##########           Internal_energy_repulsive:           34.138268

@<TRIPOS>MOLECULE
ZINC000371438955
 47 49 1 0 0
SMALL
USER_CHARGES


@<TRIPOS>ATOM
      1 C1        -10.4568    2.9230   55.2495 C.3     1  ZINC000371438955   -0.6800
      2 S2         -9.8143    1.5449   56.2387 S.o2    1  ZINC000371438955    2.6000
      3 O3        -10.7743    1.1321   57.2016 O.2     1  ZINC000371438955   -0.9500
      4 O4         -9.1567    0.5984   55.4074 O.2     1  ZINC000371438955   -0.9500
      5 N5         -8.5957    2.2146   57.1381 N.am    1  ZINC000371438955   -0.9900
      6 C6         -8.9066    3.2879   58.0381 C.3     1  ZINC000371438955    0.1300
      7 C7         -8.8432    4.6045   57.2459 C.3     1  ZINC000371438955   -0.1700
      8 C8         -7.4571    5.0531   57.0398 C.3     1  ZINC000371438955    0.1400
      9 N9         -6.6811    4.0152   56.3207 N.am    1  ZINC000371438955   -0.6200
     10 C10        -6.4227    4.1580   55.0056 C.2     1  ZINC000371438955    0.7100
     11 O11        -6.8262    5.1380   54.4098 O.2     1  ZINC000371438955   -0.5800
     12 N12        -5.7171    3.2145   54.3511 N.am    1  ZINC000371438955   -0.7400
     13 C13        -5.4362    3.3698   52.9217 C.3     1  ZINC000371438955    0.2000
     14 H14        -5.8643    4.3134   52.5834 H       1  ZINC000371438955    0.1100
     15 C15        -6.1067    2.2341   52.1684 C.3     1  ZINC000371438955   -0.1300
     16 C16        -5.8508    2.4127   50.6653 C.3     1  ZINC000371438955   -0.1100
     17 S17        -4.1069    2.0070   50.3615 S.3     1  ZINC000371438955   -0.1000
     18 C18        -3.2769    2.8848   51.6477 C.ar    1  ZINC000371438955   -0.1100
     19 C19        -1.8898    3.0261   51.5481 C.ar    1  ZINC000371438955    0.1100
     20 F20        -1.2385    2.5056   50.4851 F       1  ZINC000371438955   -0.1300
     21 C21        -1.1802    3.6927   52.5252 C.ar    1  ZINC000371438955   -0.1300
     22 C22        -1.8514    4.2214   53.6132 C.ar    1  ZINC000371438955   -0.1000
     23 C23        -3.2189    4.0858   53.7118 C.ar    1  ZINC000371438955   -0.1000
     24 C24        -3.9493    3.4197   52.7271 C.ar    1  ZINC000371438955   -0.0800
     25 C25        -6.2038    2.8575   57.0240 C.3     1  ZINC000371438955    0.1000
     26 C26        -7.2144    1.6797   56.9915 C.3     1  ZINC000371438955    0.0900
     27 H27       -10.8238    3.7062   55.9128 H       1  ZINC000371438955    0.1300
     28 H28        -9.6600    3.3223   54.6219 H       1  ZINC000371438955    0.1300
     29 H29       -11.2725    2.5687   54.6194 H       1  ZINC000371438955    0.1300
     30 H30        -9.9088    3.1499   58.4441 H       1  ZINC000371438955    0.0800
     31 H31        -8.1794    3.3106   58.8497 H       1  ZINC000371438955    0.0800
     32 H32        -9.3170    4.4581   56.2753 H       1  ZINC000371438955    0.0800
     33 H33        -9.3879    5.3744   57.7927 H       1  ZINC000371438955    0.0900
     34 H34        -7.4588    5.9725   56.4544 H       1  ZINC000371438955    0.0900
     35 H35        -6.9926    5.2454   58.0070 H       1  ZINC000371438955    0.0700
     36 H36        -5.3952    2.4327   54.8265 H       1  ZINC000371438955    0.4000
     37 H37        -5.6913    1.2820   52.4986 H       1  ZINC000371438955    0.0900
     38 H38        -7.1794    2.2521   52.3606 H       1  ZINC000371438955    0.1000
     39 H39        -6.4926    1.7392   50.0973 H       1  ZINC000371438955    0.1200
     40 H40        -6.0471    3.4452   50.3758 H       1  ZINC000371438955    0.1000
     41 H41        -0.1090    3.8007   52.4417 H       1  ZINC000371438955    0.1400
     42 H42        -1.3032    4.7402   54.3856 H       1  ZINC000371438955    0.1300
     43 H43        -3.7334    4.5006   54.5660 H       1  ZINC000371438955    0.1400
     44 H44        -5.2673    2.5313   56.5717 H       1  ZINC000371438955    0.0800
     45 H45        -6.0160    3.1286   58.0628 H       1  ZINC000371438955    0.0900
     46 H46        -6.9965    0.9912   57.8079 H       1  ZINC000371438955    0.0800
     47 H47        -7.1298    1.1543   56.0403 H       1  ZINC000371438955    0.1000
@<TRIPOS>BOND
     1     1     2    1
     2     1    27    1
     3     1    28    1
     4     1    29    1
     5     2     3    2
     6     2     4    2
     7     2     5   am
     8     5    26    1
     9     5     6    1
    10     6     7    1
    11     6    30    1
    12     6    31    1
    13     7     8    1
    14     7    32    1
    15     7    33    1
    16     8     9    1
    17     8    34    1
    18     8    35    1
    19     9    10   am
    20     9    25    1
    21    10    11    2
    22    10    12   am
    23    12    13    1
    24    12    36    1
    25    13    14    1
    26    13    24    1
    27    13    15    1
    28    15    16    1
    29    15    37    1
    30    15    38    1
    31    16    17    1
    32    16    39    1
    33    16    40    1
    34    17    18    1
    35    18    24   ar
    36    18    19   ar
    37    19    20    1
    38    19    21   ar
    39    21    22   ar
    40    21    41    1
    41    22    23   ar
    42    22    42    1
    43    23    24   ar
    44    23    43    1
    45    25    26    1
    46    25    44    1
    47    25    45    1
    48    26    46    1
    49    26    47    1
@<TRIPOS>SUBSTRUCTURE
     1 ZINC000371438955        1 TEMP              0 ****  ****    0 ROOT


##########                                Name:    ZINC000516003207
##########                DOCK_Rotatable_Bonds:                   5
##########                         Heavy_Atoms:                  24
##########                    Molecular_Weight:             342.462
##########                DOCK_Rotatable_Bonds:                   5
##########                       Formal_Charge:          -0.0200001
##########                     HBond_Acceptors:                   5
##########                        HBond_Donors:                   1
##########                         Heavy_Atoms:                  24
##########                          Grid_Score:          -26.212889
##########                     Grid_vdw_energy:          -26.425514
##########                      Grid_es_energy:            0.212626
##########           Internal_energy_repulsive:            9.603183

@<TRIPOS>MOLECULE
ZINC000516003207
 46 49 1 0 0
SMALL
USER_CHARGES


@<TRIPOS>ATOM
      1 C1        -10.4131    1.4931   52.6549 C.3     1  ZINC000516003207    0.0300
      2 O2         -9.3527    2.2379   52.0525 O.3     1  ZINC000516003207   -0.3600
      3 C3         -8.3364    2.6480   52.9696 C.3     1  ZINC000516003207    0.0900
      4 H4         -8.7336    2.9265   53.9457 H       1  ZINC000516003207    0.0800
      5 C5         -7.1421    1.6793   53.0420 C.3     1  ZINC000516003207   -0.1700
      6 C6         -6.5009    2.5007   51.9087 C.3     1  ZINC000516003207    0.1500
      7 H7         -6.7601    2.1465   50.9110 H       1  ZINC000516003207    0.1200
      8 N8         -5.0620    2.7167   52.0806 N.am    1  ZINC000516003207   -0.7200
      9 C9         -4.2221    2.5152   51.0460 C.2     1  ZINC000516003207    0.5600
     10 O10        -4.6585    2.1558   49.9700 O.2     1  ZINC000516003207   -0.5300
     11 C11        -2.7697    2.7316   51.2199 C.ar    1  ZINC000516003207   -0.1400
     12 C12        -2.2992    3.4961   52.2892 C.ar    1  ZINC000516003207   -0.0800
     13 C13        -0.9431    3.6987   52.4517 C.ar    1  ZINC000516003207   -0.1200
     14 C14        -0.0448    3.1471   51.5596 C.ar    1  ZINC000516003207   -0.0800
     15 C15        -0.5022    2.3810   50.4874 C.ar    1  ZINC000516003207   -0.0300
     16 C16         0.4651    1.7898   49.5305 C.2     1  ZINC000516003207    0.1100
     17 C17         0.0877    1.0461   48.4711 C.2     1  ZINC000516003207   -0.2600
     18 S18         1.5437    0.5517   47.6113 S.3     1  ZINC000516003207    0.1400
     19 C19         2.5127    1.3839   48.7469 C.2     1  ZINC000516003207    0.0600
     20 C20         4.0178    1.4501   48.7072 C.3     1  ZINC000516003207   -0.0800
     21 N21         1.7760    1.9508   49.6386 N.2     1  ZINC000516003207   -0.4700
     22 C22        -1.8666    2.1680   50.3200 C.ar    1  ZINC000516003207   -0.0300
     23 C23        -7.3625    3.6733   52.3881 C.3     1  ZINC000516003207   -0.1100
     24 C24        -7.8372    4.7547   51.4168 C.3     1  ZINC000516003207   -0.1200
     25 C25        -7.8158    5.7194   52.6163 C.3     1  ZINC000516003207   -0.1400
     26 C26        -6.7720    4.7856   53.2555 C.3     1  ZINC000516003207   -0.1200
     27 H27       -10.8962    2.1019   53.4192 H       1  ZINC000516003207    0.0400
     28 H28       -11.1432    1.2194   51.8933 H       1  ZINC000516003207    0.0900
     29 H29       -10.0087    0.5899   53.1119 H       1  ZINC000516003207    0.0400
     30 H30        -6.5941    1.7322   53.9827 H       1  ZINC000516003207    0.0900
     31 H31        -7.3908    0.6581   52.7534 H       1  ZINC000516003207    0.0800
     32 H32        -4.7140    3.0048   52.9389 H       1  ZINC000516003207    0.4000
     33 H33        -2.9969    3.9299   52.9902 H       1  ZINC000516003207    0.1300
     34 H34        -0.5834    4.2913   53.2799 H       1  ZINC000516003207    0.1400
     35 H35         1.0147    3.3097   51.6920 H       1  ZINC000516003207    0.1300
     36 H36        -0.9272    0.7974   48.1983 H       1  ZINC000516003207    0.1800
     37 H37         4.3835    0.8880   47.8480 H       1  ZINC000516003207    0.0800
     38 H38         4.3336    2.4899   48.6225 H       1  ZINC000516003207    0.0900
     39 H39         4.4246    1.0202   49.6226 H       1  ZINC000516003207    0.0900
     40 H40        -2.2252    1.5755   49.4913 H       1  ZINC000516003207    0.1500
     41 H41        -7.1077    5.0002   50.6449 H       1  ZINC000516003207    0.0800
     42 H42        -8.8353    4.5759   51.0168 H       1  ZINC000516003207    0.0800
     43 H43        -7.4261    6.7080   52.3738 H       1  ZINC000516003207    0.0700
     44 H44        -8.7587    5.7577   53.1619 H       1  ZINC000516003207    0.0800
     45 H45        -6.9192    4.6315   54.3244 H       1  ZINC000516003207    0.0700
     46 H46        -5.7432    5.0398   53.0004 H       1  ZINC000516003207    0.0900
@<TRIPOS>BOND
     1     1     2    1
     2     1    27    1
     3     1    28    1
     4     1    29    1
     5     2     3    1
     6     3     4    1
     7     3    23    1
     8     3     5    1
     9     5     6    1
    10     5    30    1
    11     5    31    1
    12     6     7    1
    13     6     8    1
    14     6    23    1
    15     8     9   am
    16     8    32    1
    17     9    10    2
    18     9    11    1
    19    11    22   ar
    20    11    12   ar
    21    12    13   ar
    22    12    33    1
    23    13    14   ar
    24    13    34    1
    25    14    15   ar
    26    14    35    1
    27    15    16    1
    28    15    22   ar
    29    16    21    1
    30    16    17    2
    31    17    18    1
    32    17    36    1
    33    18    19    1
    34    19    20    1
    35    19    21    2
    36    20    37    1
    37    20    38    1
    38    20    39    1
    39    22    40    1
    40    23    26    1
    41    23    24    1
    42    24    25    1
    43    24    41    1
    44    24    42    1
    45    25    26    1
    46    25    43    1
    47    25    44    1
    48    26    45    1
    49    26    46    1
@<TRIPOS>SUBSTRUCTURE
     1 ZINC000516003207        1 TEMP              0 ****  ****    0 ROOT


##########                                Name:    ZINC001272744746
##########                DOCK_Rotatable_Bonds:                   6
##########                         Heavy_Atoms:                  25
##########                    Molecular_Weight:             348.417
##########                DOCK_Rotatable_Bonds:                   6
##########                       Formal_Charge:           0.0299999
##########                     HBond_Acceptors:                   6
##########                        HBond_Donors:                   1
##########                         Heavy_Atoms:                  25
##########                          Grid_Score:          -26.196507
##########                     Grid_vdw_energy:          -24.843962
##########                      Grid_es_energy:           -1.352545
##########           Internal_energy_repulsive:           26.605486

@<TRIPOS>MOLECULE
ZINC001272744746
 50 52 1 0 0
SMALL
USER_CHARGES


@<TRIPOS>ATOM
      1 C1        -11.0297   -1.8936   55.7316 C.2     1  ZINC001272744746   -0.1700
      2 C2        -11.4412   -2.7957   56.5878 C.2     1  ZINC001272744746   -0.1700
      3 C3        -10.6055   -3.1219   57.7986 C.3     1  ZINC001272744746    0.1500
      4 N4        -10.7146   -2.0347   58.7746 N.am    1  ZINC001272744746   -0.6100
      5 C5         -9.7268   -0.9586   58.9306 C.3     1  ZINC001272744746    0.0700
      6 C6        -10.4433    0.1379   59.7373 C.3     1  ZINC001272744746    0.1100
      7 C7        -11.5236   -0.6576   60.4926 C.3     1  ZINC001272744746   -0.1500
      8 C8        -11.7348   -1.8904   59.6391 C.2     1  ZINC001272744746    0.5200
      9 O9        -12.6821   -2.6425   59.7273 O.2     1  ZINC001272744746   -0.5200
     10 C10       -11.0838    1.1567   58.8048 C.3     1  ZINC001272744746   -0.1000
     11 C11        -9.9863    1.9170   58.0523 C.3     1  ZINC001272744746   -0.1200
     12 C12        -9.0387    2.5619   59.0677 C.3     1  ZINC001272744746   -0.1200
     13 C13        -8.4413    1.4768   59.9663 C.3     1  ZINC001272744746    0.0500
     14 N14        -9.5228    0.7762   60.6734 N.3     1  ZINC001272744746   -0.5100
     15 C15        -8.9814   -0.2005   61.6279 C.3     1  ZINC001272744746    0.0800
     16 C16        -9.3780    0.1922   63.0277 C.ar    1  ZINC001272744746   -0.0200
     17 C17        -8.5731   -0.1567   64.0958 C.ar    1  ZINC001272744746   -0.1700
     18 C18        -8.9335    0.2019   65.3837 C.ar    1  ZINC001272744746    0.1200
     19 F19        -8.1452   -0.1401   66.4262 F       1  ZINC001272744746   -0.1200
     20 C20       -10.1042    0.9130   65.6028 C.ar    1  ZINC001272744746    0.0400
     21 O21       -10.4604    1.2670   66.8672 O.3     1  ZINC001272744746   -0.4700
     22 C22       -10.9128    1.2637   64.5267 C.ar    1  ZINC001272744746    0.1300
     23 O23       -12.0613    1.9611   64.7365 O.3     1  ZINC001272744746   -0.3000
     24 C24       -12.8414    2.2878   63.5846 C.3     1  ZINC001272744746    0.0200
     25 C25       -10.5433    0.9055   63.2400 C.ar    1  ZINC001272744746   -0.1800
     26 H26       -10.0916   -1.3836   55.8935 H       1  ZINC001272744746    0.1000
     27 H27       -11.6265   -1.6630   54.8615 H       1  ZINC001272744746    0.1000
     28 H28       -12.3794   -3.3056   56.4259 H       1  ZINC001272744746    0.1100
     29 H29       -10.9616   -4.0495   58.2467 H       1  ZINC001272744746    0.0900
     30 H30        -9.5637   -3.2390   57.5002 H       1  ZINC001272744746    0.0800
     31 H31        -8.8561   -1.3214   59.4769 H       1  ZINC001272744746    0.0700
     32 H32        -9.4284   -0.5754   57.9547 H       1  ZINC001272744746    0.0900
     33 H33       -11.1706   -0.9324   61.4866 H       1  ZINC001272744746    0.1100
     34 H34       -12.4459   -0.0805   60.5599 H       1  ZINC001272744746    0.1100
     35 H35       -11.7254    0.6420   58.0895 H       1  ZINC001272744746    0.0700
     36 H36       -11.6789    1.8595   59.3876 H       1  ZINC001272744746    0.0800
     37 H37        -9.4287    1.2237   57.4225 H       1  ZINC001272744746    0.0600
     38 H38       -10.4385    2.6913   57.4327 H       1  ZINC001272744746    0.0700
     39 H39        -8.2372    3.0786   58.5397 H       1  ZINC001272744746    0.0700
     40 H40        -9.5914    3.2759   59.6783 H       1  ZINC001272744746    0.0700
     41 H41        -7.8854    0.7650   59.3560 H       1  ZINC001272744746    0.0400
     42 H42        -7.7698    1.9352   60.6922 H       1  ZINC001272744746    0.0900
     43 H43        -9.3800   -1.1894   61.4012 H       1  ZINC001272744746    0.1000
     44 H44        -7.8944   -0.2204   61.5503 H       1  ZINC001272744746    0.0600
     45 H45        -7.6616   -0.7103   63.9256 H       1  ZINC001272744746    0.1400
     46 H46        -9.8484    0.9583   67.5493 H       1  ZINC001272744746    0.3900
     47 H47       -13.1439    1.3709   63.0787 H       1  ZINC001272744746    0.0600
     48 H48       -13.7280    2.8427   63.8917 H       1  ZINC001272744746    0.1100
     49 H49       -12.2477    2.8989   62.9050 H       1  ZINC001272744746    0.0600
     50 H50       -11.1699    1.1769   62.4032 H       1  ZINC001272744746    0.1400
@<TRIPOS>BOND
     1     1     2    2
     2     1    26    1
     3     1    27    1
     4     2     3    1
     5     2    28    1
     6     3     4    1
     7     3    29    1
     8     3    30    1
     9     4     8   am
    10     4     5    1
    11     5     6    1
    12     5    31    1
    13     5    32    1
    14     6    14    1
    15     6     7    1
    16     6    10    1
    17     7     8    1
    18     7    33    1
    19     7    34    1
    20     8     9    2
    21    10    11    1
    22    10    35    1
    23    10    36    1
    24    11    12    1
    25    11    37    1
    26    11    38    1
    27    12    13    1
    28    12    39    1
    29    12    40    1
    30    13    14    1
    31    13    41    1
    32    13    42    1
    33    14    15    1
    34    15    16    1
    35    15    43    1
    36    15    44    1
    37    16    25   ar
    38    16    17   ar
    39    17    18   ar
    40    17    45    1
    41    18    19    1
    42    18    20   ar
    43    20    21    1
    44    20    22   ar
    45    21    46    1
    46    22    23    1
    47    22    25   ar
    48    23    24    1
    49    24    47    1
    50    24    48    1
    51    24    49    1
    52    25    50    1
@<TRIPOS>SUBSTRUCTURE
     1 ZINC001272744746        1 TEMP              0 ****  ****    0 ROOT


##########                                Name:    ZINC000277311370
##########                DOCK_Rotatable_Bonds:                   5
##########                         Heavy_Atoms:                  17
##########                    Molecular_Weight:             361.036
##########                DOCK_Rotatable_Bonds:                   5
##########                       Formal_Charge:        -7.45058e-08
##########                     HBond_Acceptors:                   4
##########                        HBond_Donors:                   1
##########                         Heavy_Atoms:                  17
##########                          Grid_Score:          -26.195908
##########                     Grid_vdw_energy:          -25.248085
##########                      Grid_es_energy:           -0.947823
##########           Internal_energy_repulsive:            7.953380

@<TRIPOS>MOLECULE
ZINC000277311370
 28 28 1 0 0
SMALL
USER_CHARGES


@<TRIPOS>ATOM
      1 C1          0.3936    3.1397   56.2157 C.3     1  ZINC000277311370   -0.1500
      2 C2         -0.9638    2.7767   56.8213 C.3     1  ZINC000277311370   -0.1000
      3 C3         -1.0407    3.3059   58.2547 C.3     1  ZINC000277311370   -0.1600
      4 C4         -2.0799    3.4057   55.9848 C.3     1  ZINC000277311370    0.2500
      5 H5         -1.9536    4.4882   55.9657 H       1  ZINC000277311370    0.1400
      6 C6         -3.3850    3.0742   56.5794 C.1     1  ZINC000277311370    0.1900
      7 N7         -4.3922    2.8185   57.0382 N.1     1  ZINC000277311370   -0.4100
      8 N8         -2.0192    2.8829   54.6176 N.am    1  ZINC000277311370   -0.7000
      9 C9         -2.4613    3.6332   53.5889 C.2     1  ZINC000277311370    0.5700
     10 O10        -2.9088    4.7440   53.7954 O.2     1  ZINC000277311370   -0.4900
     11 C11        -2.4016    3.1040   52.2070 C.ar    1  ZINC000277311370    0.1100
     12 N12        -1.2236    2.8528   51.6486 N.ar    1  ZINC000277311370   -0.4300
     13 C13        -1.1268    2.3817   50.4238 C.ar    1  ZINC000277311370    0.1300
     14 Br14        0.5817    2.0453   49.6866 Br      1  ZINC000277311370    0.0200
     15 C15        -2.2608    2.1284   49.6661 C.ar    1  ZINC000277311370   -0.1100
     16 C16        -3.5104    2.3763   50.2101 C.ar    1  ZINC000277311370   -0.0400
     17 C17        -3.5827    2.8682   51.5054 C.ar    1  ZINC000277311370   -0.0900
     18 Br18       -5.2595    3.2265   52.3030 Br      1  ZINC000277311370    0.0300
     19 H19         1.1888    2.6917   56.8116 H       1  ZINC000277311370    0.0700
     20 H20         0.4483    2.7627   55.1945 H       1  ZINC000277311370    0.0700
     21 H21         0.5107    4.2234   56.2097 H       1  ZINC000277311370    0.0600
     22 H22        -1.0809    1.6930   56.8273 H       1  ZINC000277311370    0.1000
     23 H23        -0.9236    4.3896   58.2487 H       1  ZINC000277311370    0.0600
     24 H24        -2.0078    3.0474   58.6861 H       1  ZINC000277311370    0.0600
     25 H25        -0.2455    2.8578   58.8506 H       1  ZINC000277311370    0.0700
     26 H26        -1.6608    1.9967   54.4526 H       1  ZINC000277311370    0.4200
     27 H27        -2.1703    1.7419   48.6618 H       1  ZINC000277311370    0.1600
     28 H28        -4.4082    2.1871   49.6403 H       1  ZINC000277311370    0.1700
@<TRIPOS>BOND
     1     1     2    1
     2     1    19    1
     3     1    20    1
     4     1    21    1
     5     2     3    1
     6     2     4    1
     7     2    22    1
     8     3    23    1
     9     3    24    1
    10     3    25    1
    11     4     5    1
    12     4     6    1
    13     4     8    1
    14     6     7    3
    15     8     9   am
    16     8    26    1
    17     9    10    2
    18     9    11    1
    19    11    17   ar
    20    11    12   ar
    21    12    13   ar
    22    13    14    1
    23    13    15   ar
    24    15    16   ar
    25    15    27    1
    26    16    17   ar
    27    16    28    1
    28    17    18    1
@<TRIPOS>SUBSTRUCTURE
     1 ZINC000277311370        1 TEMP              0 ****  ****    0 ROOT


##########                                Name:    ZINC000461336108
##########                DOCK_Rotatable_Bonds:                   5
##########                         Heavy_Atoms:                  26
##########                    Molecular_Weight:             373.522
##########                DOCK_Rotatable_Bonds:                   5
##########                       Formal_Charge:        -3.42727e-07
##########                     HBond_Acceptors:                   7
##########                        HBond_Donors:                   0
##########                         Heavy_Atoms:                  26
##########                          Grid_Score:          -26.177761
##########                     Grid_vdw_energy:          -25.494789
##########                      Grid_es_energy:           -0.682971
##########           Internal_energy_repulsive:           13.496673

@<TRIPOS>MOLECULE
ZINC000461336108
 53 56 1 0 0
SMALL
USER_CHARGES


@<TRIPOS>ATOM
      1 C1         -5.6698    4.2472   53.7257 C.3     1  ZINC000461336108   -0.1300
      2 C2         -5.3519    3.9079   52.2680 C.3     1  ZINC000461336108    0.0700
      3 H3         -5.7594    4.6831   51.6191 H       1  ZINC000461336108    0.0800
      4 C4         -3.8621    3.8374   52.0859 C.2     1  ZINC000461336108    0.5300
      5 O5         -3.1715    4.6838   52.6126 O.2     1  ZINC000461336108   -0.5300
      6 N6         -3.2657    2.8801   51.3676 N.am    1  ZINC000461336108   -0.6100
      7 C7         -1.8088    2.9209   51.2201 C.3     1  ZINC000461336108    0.0700
      8 C8         -4.0018    1.7957   50.7242 C.3     1  ZINC000461336108    0.1200
      9 C9         -5.4821    2.1636   50.6079 C.3     1  ZINC000461336108    0.0400
     10 N10        -5.9594    2.6152   51.9245 N.3     1  ZINC000461336108   -0.4300
     11 C11        -7.3424    2.6973   51.9502 C.2     1  ZINC000461336108    0.3300
     12 N12        -8.0851    3.5580   51.2947 N.2     1  ZINC000461336108   -0.2500
     13 N13        -9.3268    3.3469   51.5501 N.2     1  ZINC000461336108   -0.2800
     14 C14        -9.4493    2.3472   52.3769 C.2     1  ZINC000461336108    0.2000
     15 C15       -10.7400    1.7891   52.9186 C.3     1  ZINC000461336108   -0.0300
     16 C16       -11.8704    2.0609   51.9242 C.3     1  ZINC000461336108   -0.0900
     17 C17       -13.1053    1.1864   52.2550 C.3     1  ZINC000461336108   -0.1200
     18 C18       -14.2692    1.9815   51.6128 C.3     1  ZINC000461336108   -0.1200
     19 C19       -13.9072    3.4584   51.8729 C.3     1  ZINC000461336108   -0.1300
     20 C20       -12.3821    3.5089   52.0708 C.3     1  ZINC000461336108   -0.1200
     21 N21        -8.1897    1.8946   52.6571 N.pl3   1  ZINC000461336108   -0.4900
     22 C22        -7.8251    0.7838   53.5400 C.3     1  ZINC000461336108    0.1700
     23 C23        -8.1597    1.1438   54.9646 C.2     1  ZINC000461336108   -0.2400
     24 C24        -9.3076    0.8577   55.5808 C.2     1  ZINC000461336108   -0.0900
     25 C25        -9.3882    1.2892   56.8936 C.2     1  ZINC000461336108   -0.1400
     26 C26        -8.3057    1.9255   57.3435 C.2     1  ZINC000461336108   -0.2000
     27 S27        -7.0932    1.9987   56.0715 S.3     1  ZINC000461336108    0.1200
     28 H28        -5.2629    3.4728   54.3760 H       1  ZINC000461336108    0.0800
     29 H29        -5.2228    5.2079   53.9810 H       1  ZINC000461336108    0.0800
     30 H30        -6.7503    4.3024   53.8585 H       1  ZINC000461336108    0.0700
     31 H31        -1.4133    3.7840   51.7556 H       1  ZINC000461336108    0.0900
     32 H32        -1.3762    2.0088   51.6314 H       1  ZINC000461336108    0.0700
     33 H33        -1.5526    3.0001   50.1636 H       1  ZINC000461336108    0.0600
     34 H34        -3.5930    1.6220   49.7287 H       1  ZINC000461336108    0.0900
     35 H35        -3.9005    0.8874   51.3183 H       1  ZINC000461336108    0.0900
     36 H36        -5.6035    2.9650   49.8790 H       1  ZINC000461336108    0.0500
     37 H37        -6.0523    1.2899   50.2920 H       1  ZINC000461336108    0.1100
     38 H38       -10.6372    0.7142   53.0670 H       1  ZINC000461336108    0.0800
     39 H39       -10.9710    2.2668   53.8709 H       1  ZINC000461336108    0.1000
     40 H40       -11.5325    1.8772   50.9043 H       1  ZINC000461336108    0.0900
     41 H41       -13.0136    0.2005   51.7995 H       1  ZINC000461336108    0.0600
     42 H42       -13.2426    1.1039   53.3332 H       1  ZINC000461336108    0.0600
     43 H43       -14.3208    1.7843   50.5421 H       1  ZINC000461336108    0.0700
     44 H44       -15.2143    1.7299   52.0940 H       1  ZINC000461336108    0.0700
     45 H45       -14.1930    4.0692   51.0166 H       1  ZINC000461336108    0.0700
     46 H46       -14.4122    3.8140   52.7710 H       1  ZINC000461336108    0.0600
     47 H47       -12.1470    3.8890   53.0650 H       1  ZINC000461336108    0.0700
     48 H48       -11.9277    4.1442   51.3107 H       1  ZINC000461336108    0.0700
     49 H49        -8.3811   -0.1080   53.2504 H       1  ZINC000461336108    0.1200
     50 H50        -6.7560    0.5888   53.4560 H       1  ZINC000461336108    0.1000
     51 H51       -10.1132    0.3298   55.0922 H       1  ZINC000461336108    0.1400
     52 H52       -10.2615    1.1233   57.5069 H       1  ZINC000461336108    0.1500
     53 H53        -8.1901    2.3307   58.3380 H       1  ZINC000461336108    0.1700
@<TRIPOS>BOND
     1     1     2    1
     2     1    28    1
     3     1    29    1
     4     1    30    1
     5     2     3    1
     6     2    10    1
     7     2     4    1
     8     4     5    2
     9     4     6   am
    10     6     7    1
    11     6     8    1
    12     7    31    1
    13     7    32    1
    14     7    33    1
    15     8     9    1
    16     8    34    1
    17     8    35    1
    18     9    10    1
    19     9    36    1
    20     9    37    1
    21    10    11    1
    22    11    21    1
    23    11    12    2
    24    12    13    1
    25    13    14    2
    26    14    15    1
    27    14    21    1
    28    15    16    1
    29    15    38    1
    30    15    39    1
    31    16    20    1
    32    16    17    1
    33    16    40    1
    34    17    18    1
    35    17    41    1
    36    17    42    1
    37    18    19    1
    38    18    43    1
    39    18    44    1
    40    19    20    1
    41    19    45    1
    42    19    46    1
    43    20    47    1
    44    20    48    1
    45    21    22    1
    46    22    23    1
    47    22    49    1
    48    22    50    1
    49    23    27    1
    50    23    24    2
    51    24    25    1
    52    24    51    1
    53    25    26    2
    54    25    52    1
    55    26    27    1
    56    26    53    1
@<TRIPOS>SUBSTRUCTURE
     1 ZINC000461336108        1 TEMP              0 ****  ****    0 ROOT


##########                                Name:    ZINC000673213454
##########                DOCK_Rotatable_Bonds:                   7
##########                         Heavy_Atoms:                  26
##########                    Molecular_Weight:             360.453
##########                DOCK_Rotatable_Bonds:                   7
##########                       Formal_Charge:          -0.0100001
##########                     HBond_Acceptors:                   6
##########                        HBond_Donors:                   1
##########                         Heavy_Atoms:                  26
##########                          Grid_Score:          -26.165852
##########                     Grid_vdw_energy:          -25.596106
##########                      Grid_es_energy:           -0.569747
##########           Internal_energy_repulsive:           18.981358

@<TRIPOS>MOLECULE
ZINC000673213454
 54 56 1 0 0
SMALL
USER_CHARGES


@<TRIPOS>ATOM
      1 C1        -15.2870   -3.2000   59.4081 C.3     1  ZINC000673213454   -0.1700
      2 C2        -14.5167   -2.3252   60.3992 C.3     1  ZINC000673213454    0.1400
      3 H3        -13.8711   -2.9534   61.0128 H       1  ZINC000673213454    0.0900
      4 C4        -15.5059   -1.5797   61.2974 C.3     1  ZINC000673213454   -0.1200
      5 C5        -16.0894   -0.3886   60.5347 C.3     1  ZINC000673213454   -0.1300
      6 H6        -16.0057   -0.5470   59.4597 H       1  ZINC000673213454    0.0800
      7 C7        -15.3746    0.9214   60.9468 C.3     1  ZINC000673213454   -0.1500
      8 C8        -16.5534    1.9250   61.0207 C.3     1  ZINC000673213454    0.0500
      9 O9        -17.6356    1.1347   61.5581 O.3     1  ZINC000673213454   -0.3800
     10 C10       -17.5605   -0.1612   60.9335 C.3     1  ZINC000673213454    0.0500
     11 N11       -13.6998   -1.3570   59.6634 N.am    1  ZINC000673213454   -0.6900
     12 C12       -12.4042   -1.6256   59.4067 C.2     1  ZINC000673213454    0.5100
     13 O13       -11.9148   -2.6701   59.7837 O.2     1  ZINC000673213454   -0.5100
     14 C14       -11.5703   -0.6372   58.6577 C.2     1  ZINC000673213454    0.5000
     15 O15       -11.6089   -0.6060   57.4452 O.2     1  ZINC000673213454   -0.5200
     16 N16       -10.7755    0.2198   59.3288 N.am    1  ZINC000673213454   -0.5800
     17 C17       -10.7499    0.1582   60.8024 C.3     1  ZINC000673213454    0.1100
     18 C18        -9.3173    0.3064   61.3354 C.3     1  ZINC000673213454   -0.1700
     19 C19        -8.3626   -0.4651   60.4466 C.3     1  ZINC000673213454    0.0800
     20 O20        -7.8778    0.4052   59.4325 O.3     1  ZINC000673213454   -0.3800
     21 C21        -8.5941    0.5475   58.2613 C.3     1  ZINC000673213454    0.1500
     22 H22        -8.7309   -0.4297   57.7981 H       1  ZINC000673213454    0.0600
     23 C23        -7.8405    1.4494   57.3182 C.ar    1  ZINC000673213454   -0.0800
     24 C24        -6.9517    2.3832   57.8169 C.ar    1  ZINC000673213454   -0.0900
     25 C25        -6.2604    3.2105   56.9517 C.ar    1  ZINC000673213454   -0.1300
     26 C26        -6.4578    3.1038   55.5877 C.ar    1  ZINC000673213454   -0.1200
     27 C27        -7.3460    2.1694   55.0888 C.ar    1  ZINC000673213454   -0.1300
     28 C28        -8.0341    1.3392   55.9539 C.ar    1  ZINC000673213454   -0.0900
     29 C29        -9.9729    1.1644   58.5742 C.3     1  ZINC000673213454    0.0700
     30 H30       -15.9327   -2.5718   58.7945 H       1  ZINC000673213454    0.0600
     31 H31       -14.5824   -3.7311   58.7683 H       1  ZINC000673213454    0.0600
     32 H32       -15.8950   -3.9204   59.9555 H       1  ZINC000673213454    0.0700
     33 H33       -16.3110   -2.2540   61.5892 H       1  ZINC000673213454    0.0800
     34 H34       -14.9898   -1.2229   62.1887 H       1  ZINC000673213454    0.0900
     35 H35       -14.8942    0.8131   61.9192 H       1  ZINC000673213454    0.0800
     36 H36       -14.6521    1.2250   60.1893 H       1  ZINC000673213454    0.0800
     37 H37       -16.3126    2.7513   61.6897 H       1  ZINC000673213454    0.0900
     38 H38       -16.8052    2.2953   60.0270 H       1  ZINC000673213454    0.0600
     39 H39       -18.1953   -0.1830   60.0477 H       1  ZINC000673213454    0.0600
     40 H40       -17.8767   -0.9309   61.6374 H       1  ZINC000673213454    0.0900
     41 H41       -14.0911   -0.5226   59.3610 H       1  ZINC000673213454    0.4100
     42 H42       -11.3664    0.9619   61.2049 H       1  ZINC000673213454    0.0800
     43 H43       -11.1555   -0.7999   61.1275 H       1  ZINC000673213454    0.0900
     44 H44        -9.0386    1.3601   61.3391 H       1  ZINC000673213454    0.0800
     45 H45        -9.2654   -0.0862   62.3508 H       1  ZINC000673213454    0.0900
     46 H46        -7.5271   -0.8342   61.0415 H       1  ZINC000673213454    0.1000
     47 H47        -8.8867   -1.3039   59.9885 H       1  ZINC000673213454    0.0500
     48 H48        -6.7974    2.4665   58.8826 H       1  ZINC000673213454    0.1300
     49 H49        -5.5664    3.9405   57.3414 H       1  ZINC000673213454    0.1200
     50 H50        -5.9183    3.7506   54.9117 H       1  ZINC000673213454    0.1200
     51 H51        -7.5005    2.0862   54.0232 H       1  ZINC000673213454    0.1200
     52 H52        -8.7280    0.6091   55.5641 H       1  ZINC000673213454    0.1300
     53 H53       -10.4824    1.4066   57.6415 H       1  ZINC000673213454    0.1200
     54 H54        -9.8393    2.0730   59.1613 H       1  ZINC000673213454    0.0800
@<TRIPOS>BOND
     1     1     2    1
     2     1    30    1
     3     1    31    1
     4     1    32    1
     5     2     3    1
     6     2     4    1
     7     2    11    1
     8     4     5    1
     9     4    33    1
    10     4    34    1
    11     5     6    1
    12     5    10    1
    13     5     7    1
    14     7     8    1
    15     7    35    1
    16     7    36    1
    17     8     9    1
    18     8    37    1
    19     8    38    1
    20     9    10    1
    21    10    39    1
    22    10    40    1
    23    11    12   am
    24    11    41    1
    25    12    13    2
    26    12    14    1
    27    14    15    2
    28    14    16   am
    29    16    29    1
    30    16    17    1
    31    17    18    1
    32    17    42    1
    33    17    43    1
    34    18    19    1
    35    18    44    1
    36    18    45    1
    37    19    20    1
    38    19    46    1
    39    19    47    1
    40    20    21    1
    41    21    22    1
    42    21    23    1
    43    21    29    1
    44    23    28   ar
    45    23    24   ar
    46    24    25   ar
    47    24    48    1
    48    25    26   ar
    49    25    49    1
    50    26    27   ar
    51    26    50    1
    52    27    28   ar
    53    27    51    1
    54    28    52    1
    55    29    53    1
    56    29    54    1
@<TRIPOS>SUBSTRUCTURE
     1 ZINC000673213454        1 TEMP              0 ****  ****    0 ROOT


##########                                Name:    ZINC000541568816
##########                DOCK_Rotatable_Bonds:                   8
##########                         Heavy_Atoms:                  25
##########                    Molecular_Weight:             411.339
##########                DOCK_Rotatable_Bonds:                   8
##########                       Formal_Charge:          -0.0100007
##########                     HBond_Acceptors:                   5
##########                        HBond_Donors:                   1
##########                         Heavy_Atoms:                  25
##########                          Grid_Score:          -26.121910
##########                     Grid_vdw_energy:          -25.401653
##########                      Grid_es_energy:           -0.720258
##########           Internal_energy_repulsive:           25.370783

@<TRIPOS>MOLECULE
ZINC000541568816
 52 54 1 0 0
SMALL
USER_CHARGES


@<TRIPOS>ATOM
      1 C1        -10.3124   -0.9049   58.9802 C.3     1  ZINC000541568816   -0.1500
      2 C2         -9.6093    0.2445   58.2553 C.3     1  ZINC000541568816    0.0600
      3 O3        -10.1731    0.4011   56.9516 O.3     1  ZINC000541568816   -0.3700
      4 C4         -9.3679    1.1741   56.0593 C.3     1  ZINC000541568816    0.0700
      5 H5         -8.3114    0.9099   56.1053 H       1  ZINC000541568816    0.0900
      6 C6         -9.6296    2.6881   56.1462 C.3     1  ZINC000541568816   -0.1700
      7 C7         -9.5133    2.7193   54.6121 C.3     1  ZINC000541568816    0.1500
      8 H8        -10.2442    3.3696   54.1314 H       1  ZINC000541568816    0.1100
      9 N9         -8.1479    2.9439   54.1310 N.am    1  ZINC000541568816   -0.7200
     10 C10        -7.9428    3.5373   52.9383 C.2     1  ZINC000541568816    0.7100
     11 O11        -8.8909    3.8875   52.2625 O.2     1  ZINC000541568816   -0.5800
     12 N12        -6.6867    3.7425   52.4949 N.am    1  ZINC000541568816   -0.6300
     13 C13        -6.4636    4.3858   51.1978 C.3     1  ZINC000541568816    0.1000
     14 C14        -5.9196    5.7991   51.4163 C.3     1  ZINC000541568816   -0.1800
     15 C15        -5.5443    3.3221   53.3102 C.3     1  ZINC000541568816    0.1700
     16 C16        -4.3386    3.1333   52.4261 C.ar    1  ZINC000541568816   -0.0700
     17 C17        -3.2447    3.9669   52.5619 C.ar    1  ZINC000541568816   -0.1000
     18 C18        -2.1385    3.7938   51.7508 C.ar    1  ZINC000541568816   -0.1000
     19 C19        -2.1259    2.7868   50.8041 C.ar    1  ZINC000541568816   -0.1200
     20 C20        -3.2197    1.9525   50.6674 C.ar    1  ZINC000541568816   -0.0900
     21 C21        -4.3244    2.1221   51.4822 C.ar    1  ZINC000541568816   -0.0900
     22 Br22       -5.8210    0.9811   51.2958 Br      1  ZINC000541568816   -0.0500
     23 C23        -9.9228    1.2413   54.6329 C.3     1  ZINC000541568816    0.0800
     24 C24       -11.4375    0.9947   54.5232 C.3     1  ZINC000541568816   -0.1200
     25 C25       -11.5661    0.3947   53.0951 C.3     1  ZINC000541568816   -0.1600
     26 C26       -10.2349   -0.3914   52.9833 C.3     1  ZINC000541568816    0.0500
     27 O27        -9.2644    0.4110   53.6783 O.3     1  ZINC000541568816   -0.3600
     28 H28       -11.3758   -0.6824   59.0686 H       1  ZINC000541568816    0.0600
     29 H29       -10.1799   -1.8267   58.4139 H       1  ZINC000541568816    0.0600
     30 H30        -9.8824   -1.0244   59.9747 H       1  ZINC000541568816    0.0700
     31 H31        -9.7418    1.1664   58.8217 H       1  ZINC000541568816    0.0500
     32 H32        -8.5459    0.0221   58.1671 H       1  ZINC000541568816    0.0500
     33 H33       -10.6249    2.9384   56.5136 H       1  ZINC000541568816    0.1000
     34 H34        -8.8389    3.2392   56.6552 H       1  ZINC000541568816    0.0800
     35 H35        -7.3916    2.6656   54.6707 H       1  ZINC000541568816    0.4000
     36 H36        -5.7432    3.8041   50.6228 H       1  ZINC000541568816    0.0900
     37 H37        -7.4057    4.4395   50.6521 H       1  ZINC000541568816    0.0700
     38 H38        -4.9776    5.7455   51.9621 H       1  ZINC000541568816    0.0600
     39 H39        -5.7537    6.2778   50.4512 H       1  ZINC000541568816    0.0700
     40 H40        -6.6400    6.3808   51.9914 H       1  ZINC000541568816    0.0600
     41 H41        -5.3307    4.0861   54.0577 H       1  ZINC000541568816    0.1000
     42 H42        -5.7801    2.3819   53.8087 H       1  ZINC000541568816    0.1100
     43 H43        -3.2541    4.7538   53.3015 H       1  ZINC000541568816    0.1300
     44 H44        -1.2840    4.4458   51.8567 H       1  ZINC000541568816    0.1300
     45 H45        -1.2616    2.6520   50.1707 H       1  ZINC000541568816    0.1300
     46 H46        -3.2100    1.1659   49.9274 H       1  ZINC000541568816    0.1300
     47 H47       -11.7711    0.2811   55.2766 H       1  ZINC000541568816    0.1000
     48 H48       -11.9908    1.9304   54.6035 H       1  ZINC000541568816    0.0900
     49 H49       -12.4240   -0.2739   53.0260 H       1  ZINC000541568816    0.0900
     50 H50       -11.6219    1.1812   52.3425 H       1  ZINC000541568816    0.0800
     51 H51       -10.3305   -1.3668   53.4603 H       1  ZINC000541568816    0.0600
     52 H52        -9.9507   -0.5072   51.9374 H       1  ZINC000541568816    0.0900
@<TRIPOS>BOND
     1     1     2    1
     2     1    28    1
     3     1    29    1
     4     1    30    1
     5     2     3    1
     6     2    31    1
     7     2    32    1
     8     3     4    1
     9     4     5    1
    10     4    23    1
    11     4     6    1
    12     6     7    1
    13     6    33    1
    14     6    34    1
    15     7     8    1
    16     7     9    1
    17     7    23    1
    18     9    10   am
    19     9    35    1
    20    10    11    2
    21    10    12   am
    22    12    13    1
    23    12    15    1
    24    13    14    1
    25    13    36    1
    26    13    37    1
    27    14    38    1
    28    14    39    1
    29    14    40    1
    30    15    16    1
    31    15    41    1
    32    15    42    1
    33    16    21   ar
    34    16    17   ar
    35    17    18   ar
    36    17    43    1
    37    18    19   ar
    38    18    44    1
    39    19    20   ar
    40    19    45    1
    41    20    21   ar
    42    20    46    1
    43    21    22    1
    44    23    27    1
    45    23    24    1
    46    24    25    1
    47    24    47    1
    48    24    48    1
    49    25    26    1
    50    25    49    1
    51    25    50    1
    52    26    27    1
    53    26    51    1
    54    26    52    1
@<TRIPOS>SUBSTRUCTURE
     1 ZINC000541568816        1 TEMP              0 ****  ****    0 ROOT


##########                                Name:    ZINC001135312623
##########                DOCK_Rotatable_Bonds:                   3
##########                         Heavy_Atoms:                  25
##########                    Molecular_Weight:             341.323
##########                DOCK_Rotatable_Bonds:                   3
##########                       Formal_Charge:        -1.78814e-07
##########                     HBond_Acceptors:                   8
##########                        HBond_Donors:                   2
##########                         Heavy_Atoms:                  25
##########                          Grid_Score:          -26.115593
##########                     Grid_vdw_energy:          -25.721687
##########                      Grid_es_energy:           -0.393906
##########           Internal_energy_repulsive:          160.374298

@<TRIPOS>MOLECULE
ZINC001135312623
 40 42 1 0 0
SMALL
USER_CHARGES


@<TRIPOS>ATOM
      1 C1          2.7257    4.5364   52.4018 C.3     1  ZINC001135312623   -0.1300
      2 C2          2.9075    3.7409   51.1349 C.ar    1  ZINC001135312623   -0.0600
      3 C3          4.1534    3.6543   50.5459 C.ar    1  ZINC001135312623   -0.1000
      4 C4          4.3210    2.9248   49.3828 C.ar    1  ZINC001135312623   -0.0300
      5 C5          5.6822    2.8325   48.7427 C.3     1  ZINC001135312623   -0.1300
      6 C6          3.2425    2.2795   48.8065 C.ar    1  ZINC001135312623   -0.0200
      7 N7          3.4264    1.4999   47.5618 N.pl3   1  ZINC001135312623    0.0200
      8 O8          2.5448    1.4769   46.7217 O.2     1  ZINC001135312623   -0.1500
      9 O9          4.4593    0.8813   47.3776 O.2     1  ZINC001135312623   -0.1500
     10 C10         1.9938    2.3613   49.3911 C.ar    1  ZINC001135312623   -0.0700
     11 C11         1.8230    3.0890   50.5615 C.ar    1  ZINC001135312623    0.1500
     12 N12         0.5601    3.1738   51.1561 N.am    1  ZINC001135312623   -0.6600
     13 C13        -0.4933    2.5497   50.5926 C.2     1  ZINC001135312623    0.5600
     14 O14        -0.3455    1.9130   49.5673 O.2     1  ZINC001135312623   -0.5000
     15 C15        -1.8259    2.6392   51.2200 C.ar    1  ZINC001135312623   -0.1600
     16 C16        -1.9969    3.3703   52.3985 C.ar    1  ZINC001135312623   -0.0400
     17 C17        -3.2412    3.4529   52.9841 C.ar    1  ZINC001135312623   -0.1500
     18 C18        -4.3254    2.8092   52.4015 C.ar    1  ZINC001135312623    0.2000
     19 N19        -5.5932    2.8772   52.9797 N.am    1  ZINC001135312623   -0.6700
     20 C20        -6.5497    2.0087   52.5947 C.2     1  ZINC001135312623    0.6600
     21 O21        -7.6605    2.0850   53.0813 O.2     1  ZINC001135312623   -0.4900
     22 O22        -6.2896    1.0589   51.6784 O.3     1  ZINC001135312623   -0.3400
     23 C23        -5.3552    1.3947   50.6161 C.3     1  ZINC001135312623    0.1100
     24 C24        -4.1576    2.0805   51.2249 C.ar    1  ZINC001135312623   -0.1800
     25 C25        -2.9212    1.9970   50.6328 C.ar    1  ZINC001135312623    0.0000
     26 H26         2.8914    3.8901   53.2637 H       1  ZINC001135312623    0.0900
     27 H27         3.4417    5.3581   52.4208 H       1  ZINC001135312623    0.0800
     28 H28         1.7124    4.9366   52.4373 H       1  ZINC001135312623    0.0700
     29 H29         4.9978    4.1572   50.9936 H       1  ZINC001135312623    0.1500
     30 H30         6.2467    2.0226   49.2046 H       1  ZINC001135312623    0.0900
     31 H31         5.5697    2.6353   47.6767 H       1  ZINC001135312623    0.0800
     32 H32         6.2145    3.7731   48.8840 H       1  ZINC001135312623    0.0800
     33 H33         1.1518    1.8570   48.9404 H       1  ZINC001135312623    0.1700
     34 H34         0.4421    3.6818   51.9739 H       1  ZINC001135312623    0.4200
     35 H35        -1.1533    3.8706   52.8508 H       1  ZINC001135312623    0.1400
     36 H36        -3.3735    4.0174   53.8953 H       1  ZINC001135312623    0.1500
     37 H37        -5.7853    3.5459   53.6555 H       1  ZINC001135312623    0.4300
     38 H38        -5.0363    0.4844   50.1083 H       1  ZINC001135312623    0.1300
     39 H39        -5.8369    2.0642   49.9034 H       1  ZINC001135312623    0.1000
     40 H40        -2.7944    1.4346   49.7194 H       1  ZINC001135312623    0.1500
@<TRIPOS>BOND
     1     1     2    1
     2     1    26    1
     3     1    27    1
     4     1    28    1
     5     2    11   ar
     6     2     3   ar
     7     3     4   ar
     8     3    29    1
     9     4     5    1
    10     4     6   ar
    11     5    30    1
    12     5    31    1
    13     5    32    1
    14     6     7    1
    15     6    10   ar
    16     7     8    2
    17     7     9    2
    18    10    11   ar
    19    10    33    1
    20    11    12    1
    21    12    13   am
    22    12    34    1
    23    13    14    2
    24    13    15    1
    25    15    25   ar
    26    15    16   ar
    27    16    17   ar
    28    16    35    1
    29    17    18   ar
    30    17    36    1
    31    18    24   ar
    32    18    19    1
    33    19    20   am
    34    19    37    1
    35    20    21    2
    36    20    22    1
    37    22    23    1
    38    23    24    1
    39    23    38    1
    40    23    39    1
    41    24    25   ar
    42    25    40    1
@<TRIPOS>SUBSTRUCTURE
     1 ZINC001135312623        1 TEMP              0 ****  ****    0 ROOT


##########                                Name:    ZINC000864477301
##########                DOCK_Rotatable_Bonds:                   6
##########                         Heavy_Atoms:                  26
##########                    Molecular_Weight:             393.891
##########                DOCK_Rotatable_Bonds:                   6
##########                       Formal_Charge:         -0.00999978
##########                     HBond_Acceptors:                   7
##########                        HBond_Donors:                   1
##########                         Heavy_Atoms:                  26
##########                          Grid_Score:          -26.094074
##########                     Grid_vdw_energy:          -22.440365
##########                      Grid_es_energy:           -3.653710
##########           Internal_energy_repulsive:            7.311447

@<TRIPOS>MOLECULE
ZINC000864477301
 46 47 1 0 0
SMALL
USER_CHARGES


@<TRIPOS>ATOM
      1 C1        -14.9644   -0.1524   62.3426 C.3     1  ZINC000864477301   -0.1500
      2 C2        -14.3288    1.1232   62.8990 C.3     1  ZINC000864477301    0.0600
      3 O3        -13.4251    0.7808   63.9826 O.3     1  ZINC000864477301   -0.3500
      4 C4        -12.6346    1.7645   64.4538 C.2     1  ZINC000864477301    0.5100
      5 O5        -13.1195    2.6869   65.0779 O.2     1  ZINC000864477301   -0.5000
      6 C6        -11.1780    1.7216   64.2115 C.ar    1  ZINC000864477301   -0.1400
      7 C7        -10.2991    1.4652   65.2654 C.ar    1  ZINC000864477301   -0.0300
      8 C8         -8.9398    1.4267   65.0320 C.ar    1  ZINC000864477301   -0.1500
      9 C9         -8.4473    1.6419   63.7573 C.ar    1  ZINC000864477301   -0.0100
     10 C10        -9.3129    1.8966   62.7080 C.ar    1  ZINC000864477301   -0.4900
     11 S11        -8.6747    2.1693   61.0884 S.o     1  ZINC000864477301    1.3800
     12 O12        -9.7034    2.9237   60.4623 O.2     1  ZINC000864477301   -0.8100
     13 C13        -8.6327    0.4999   60.3800 C.3     1  ZINC000864477301   -0.4600
     14 H14        -7.9170   -0.1106   60.9307 H       1  ZINC000864477301    0.1400
     15 C15       -10.0231   -0.1309   60.4781 C.3     1  ZINC000864477301   -0.1400
     16 C16        -8.2176    0.5783   58.9334 C.2     1  ZINC000864477301    0.5500
     17 O17        -7.3912   -0.1947   58.4968 O.2     1  ZINC000864477301   -0.5100
     18 N18        -8.7646    1.5075   58.1248 N.am    1  ZINC000864477301   -0.6800
     19 C19        -8.3791    1.5804   56.7811 C.ar    1  ZINC000864477301    0.1400
     20 C20        -7.3840    2.4658   56.3901 C.ar    1  ZINC000864477301   -0.0600
     21 C21        -6.7173    3.3502   57.4119 C.3     1  ZINC000864477301   -0.1100
     22 C22        -7.0052    2.5351   55.0632 C.ar    1  ZINC000864477301   -0.1100
     23 C23        -7.6157    1.7241   54.1247 C.ar    1  ZINC000864477301   -0.1000
     24 C24        -8.6079    0.8409   54.5102 C.ar    1  ZINC000864477301   -0.1100
     25 C25        -8.9875    0.7622   55.8364 C.ar    1  ZINC000864477301   -0.0200
     26 Cl26      -10.2324   -0.3468   56.3200 Cl      1  ZINC000864477301   -0.0600
     27 C27       -10.6743    1.9318   62.9260 C.ar    1  ZINC000864477301    0.0100
     28 H28       -14.1833   -0.8144   61.9689 H       1  ZINC000864477301    0.0700
     29 H29       -15.5201   -0.6563   63.1335 H       1  ZINC000864477301    0.0700
     30 H30       -15.6428    0.1047   61.5291 H       1  ZINC000864477301    0.0800
     31 H31       -13.7733    1.6271   62.1081 H       1  ZINC000864477301    0.0700
     32 H32       -15.1099    1.7852   63.2728 H       1  ZINC000864477301    0.0700
     33 H33       -10.6822    1.2977   66.2612 H       1  ZINC000864477301    0.1400
     34 H34        -8.2588    1.2285   65.8464 H       1  ZINC000864477301    0.1400
     35 H35        -7.3824    1.6114   63.5803 H       1  ZINC000864477301    0.1500
     36 H36        -9.9978   -1.1341   60.0524 H       1  ZINC000864477301    0.0700
     37 H37       -10.3233   -0.1878   61.5245 H       1  ZINC000864477301    0.0700
     38 H38       -10.7388    0.4795   59.9274 H       1  ZINC000864477301    0.0700
     39 H39        -9.4254    2.1259   58.4740 H       1  ZINC000864477301    0.4100
     40 H40        -5.8468    2.8385   57.8227 H       1  ZINC000864477301    0.0800
     41 H41        -6.4021    4.2796   56.9377 H       1  ZINC000864477301    0.0700
     42 H42        -7.4205    3.5721   58.2146 H       1  ZINC000864477301    0.0700
     43 H43        -6.2314    3.2242   54.7586 H       1  ZINC000864477301    0.1400
     44 H44        -7.3175    1.7805   53.0883 H       1  ZINC000864477301    0.1400
     45 H45        -9.0831    0.2088   53.7745 H       1  ZINC000864477301    0.1400
     46 H46       -11.3489    2.1303   62.1062 H       1  ZINC000864477301    0.1400
@<TRIPOS>BOND
     1     1     2    1
     2     1    28    1
     3     1    29    1
     4     1    30    1
     5     2     3    1
     6     2    31    1
     7     2    32    1
     8     3     4    1
     9     4     5    2
    10     4     6    1
    11     6    27   ar
    12     6     7   ar
    13     7     8   ar
    14     7    33    1
    15     8     9   ar
    16     8    34    1
    17     9    10   ar
    18     9    35    1
    19    10    11    1
    20    10    27   ar
    21    11    12    2
    22    11    13    1
    23    13    14    1
    24    13    15    1
    25    13    16    1
    26    15    36    1
    27    15    37    1
    28    15    38    1
    29    16    17    2
    30    16    18   am
    31    18    19    1
    32    18    39    1
    33    19    25   ar
    34    19    20   ar
    35    20    21    1
    36    20    22   ar
    37    21    40    1
    38    21    41    1
    39    21    42    1
    40    22    23   ar
    41    22    43    1
    42    23    24   ar
    43    23    44    1
    44    24    25   ar
    45    24    45    1
    46    25    26    1
    47    27    46    1
@<TRIPOS>SUBSTRUCTURE
     1 ZINC000864477301        1 TEMP              0 ****  ****    0 ROOT


##########                                Name:    ZINC000225856071
##########                DOCK_Rotatable_Bonds:                   6
##########                         Heavy_Atoms:                  29
##########                    Molecular_Weight:             409.549
##########                DOCK_Rotatable_Bonds:                   6
##########                       Formal_Charge:         -0.00999989
##########                     HBond_Acceptors:                   5
##########                        HBond_Donors:                   1
##########                         Heavy_Atoms:                  29
##########                          Grid_Score:          -26.079935
##########                     Grid_vdw_energy:          -25.824640
##########                      Grid_es_energy:           -0.255296
##########           Internal_energy_repulsive:           41.197643

@<TRIPOS>MOLECULE
ZINC000225856071
 56 58 1 0 0
SMALL
USER_CHARGES


@<TRIPOS>ATOM
      1 C1         -6.9797    2.1087   54.3156 C.3     1  ZINC000225856071    0.0200
      2 O2         -8.3479    2.2481   54.7036 O.3     1  ZINC000225856071   -0.3100
      3 C3         -8.8541    1.2973   55.5323 C.ar    1  ZINC000225856071    0.1900
      4 C4         -8.2757    1.0786   56.7738 C.ar    1  ZINC000225856071   -0.2300
      5 C5         -8.7926    0.1117   57.6148 C.ar    1  ZINC000225856071    0.0700
      6 C6         -8.1646   -0.1264   58.9638 C.3     1  ZINC000225856071   -0.1800
      7 C7         -9.8854   -0.6371   57.2198 C.ar    1  ZINC000225856071   -0.7100
      8 S8        -10.5425   -1.8689   58.2946 S.o2    1  ZINC000225856071    2.7000
      9 O9         -9.7841   -3.0483   58.0644 O.2     1  ZINC000225856071   -0.9600
     10 O10       -10.6657   -1.2614   59.5733 O.2     1  ZINC000225856071   -0.9500
     11 N11       -12.0829   -2.1958   57.7819 N.am    1  ZINC000225856071   -1.1100
     12 C12       -13.0869   -1.1293   57.7525 C.3     1  ZINC000225856071    0.2400
     13 H13       -12.6039   -0.1704   57.9407 H       1  ZINC000225856071    0.1100
     14 C14       -14.1242   -1.3864   58.8149 C.ar    1  ZINC000225856071   -0.1000
     15 C15       -13.8828   -2.3206   59.8048 C.ar    1  ZINC000225856071   -0.1000
     16 C16       -14.8344   -2.5565   60.7794 C.ar    1  ZINC000225856071   -0.1200
     17 C17       -16.0271   -1.8578   60.7643 C.ar    1  ZINC000225856071   -0.1100
     18 C18       -16.2681   -0.9229   59.7749 C.ar    1  ZINC000225856071   -0.1100
     19 C19       -15.3148   -0.6839   58.8028 C.ar    1  ZINC000225856071   -0.1000
     20 C20       -13.7499   -1.1008   56.3994 C.ar    1  ZINC000225856071   -0.0900
     21 C21       -13.8578    0.0910   55.7078 C.ar    1  ZINC000225856071   -0.1000
     22 C22       -14.4661    0.1171   54.4664 C.ar    1  ZINC000225856071   -0.1200
     23 C23       -14.9658   -1.0485   53.9171 C.ar    1  ZINC000225856071   -0.0800
     24 C24       -15.6293   -1.0199   52.5643 C.3     1  ZINC000225856071   -0.1200
     25 C25       -14.8567   -2.2409   54.6084 C.ar    1  ZINC000225856071   -0.1200
     26 C26       -14.2452   -2.2676   55.8476 C.ar    1  ZINC000225856071   -0.0600
     27 C27       -14.1262   -3.5673   56.6012 C.3     1  ZINC000225856071   -0.1300
     28 C28       -10.4641   -0.4207   55.9826 C.ar    1  ZINC000225856071    0.0200
     29 C29        -9.9539    0.5478   55.1401 C.ar    1  ZINC000225856071   -0.1400
     30 C30       -10.5853    0.7834   53.7922 C.3     1  ZINC000225856071   -0.1100
     31 H31        -6.8451    1.1621   53.7921 H       1  ZINC000225856071    0.0600
     32 H32        -6.7035    2.9312   53.6557 H       1  ZINC000225856071    0.1000
     33 H33        -6.3468    2.1265   55.2028 H       1  ZINC000225856071    0.0600
     34 H34        -7.4219    1.6634   57.0830 H       1  ZINC000225856071    0.1400
     35 H35        -8.6483    0.5079   59.7068 H       1  ZINC000225856071    0.0900
     36 H36        -8.2892   -1.1726   59.2429 H       1  ZINC000225856071    0.1000
     37 H37        -7.1023    0.1133   58.9177 H       1  ZINC000225856071    0.0800
     38 H38       -12.3204   -3.0933   57.5010 H       1  ZINC000225856071    0.4200
     39 H39       -12.9510   -2.8664   59.8166 H       1  ZINC000225856071    0.1200
     40 H40       -14.6461   -3.2869   61.5524 H       1  ZINC000225856071    0.1200
     41 H41       -16.7708   -2.0426   61.5253 H       1  ZINC000225856071    0.1200
     42 H42       -17.2000   -0.3774   59.7630 H       1  ZINC000225856071    0.1200
     43 H43       -15.5030    0.0464   58.0298 H       1  ZINC000225856071    0.1200
     44 H44       -13.4672    1.0018   56.1371 H       1  ZINC000225856071    0.1200
     45 H45       -14.5510    1.0485   53.9263 H       1  ZINC000225856071    0.1200
     46 H46       -14.8819   -1.1906   51.7894 H       1  ZINC000225856071    0.0700
     47 H47       -16.3883   -1.8007   52.5153 H       1  ZINC000225856071    0.0700
     48 H48       -16.0975   -0.0478   52.4097 H       1  ZINC000225856071    0.0700
     49 H49       -15.2469   -3.1517   54.1789 H       1  ZINC000225856071    0.1200
     50 H50       -13.1915   -4.0591   56.3319 H       1  ZINC000225856071    0.0800
     51 H51       -14.1365   -3.3682   57.6728 H       1  ZINC000225856071    0.0700
     52 H52       -14.9646   -4.2146   56.3439 H       1  ZINC000225856071    0.0700
     53 H53       -11.3181   -1.0067   55.6764 H       1  ZINC000225856071    0.1500
     54 H54       -11.3687    1.5358   53.8845 H       1  ZINC000225856071    0.0700
     55 H55        -9.8268    1.1327   53.0917 H       1  ZINC000225856071    0.0700
     56 H56       -11.0173   -0.1478   53.4255 H       1  ZINC000225856071    0.0700
@<TRIPOS>BOND
     1     1     2    1
     2     1    31    1
     3     1    32    1
     4     1    33    1
     5     2     3    1
     6     3    29   ar
     7     3     4   ar
     8     4     5   ar
     9     4    34    1
    10     5     6    1
    11     5     7   ar
    12     6    35    1
    13     6    36    1
    14     6    37    1
    15     7     8    1
    16     7    28   ar
    17     8     9    2
    18     8    10    2
    19     8    11   am
    20    11    12    1
    21    11    38    1
    22    12    13    1
    23    12    14    1
    24    12    20    1
    25    14    19   ar
    26    14    15   ar
    27    15    16   ar
    28    15    39    1
    29    16    17   ar
    30    16    40    1
    31    17    18   ar
    32    17    41    1
    33    18    19   ar
    34    18    42    1
    35    19    43    1
    36    20    26   ar
    37    20    21   ar
    38    21    22   ar
    39    21    44    1
    40    22    23   ar
    41    22    45    1
    42    23    24    1
    43    23    25   ar
    44    24    46    1
    45    24    47    1
    46    24    48    1
    47    25    26   ar
    48    25    49    1
    49    26    27    1
    50    27    50    1
    51    27    51    1
    52    27    52    1
    53    28    29   ar
    54    28    53    1
    55    29    30    1
    56    30    54    1
    57    30    55    1
    58    30    56    1
@<TRIPOS>SUBSTRUCTURE
     1 ZINC000225856071        1 TEMP              0 ****  ****    0 ROOT


##########                                Name:    ZINC000863208514
##########                DOCK_Rotatable_Bonds:                   6
##########                         Heavy_Atoms:                  19
##########                    Molecular_Weight:             368.657
##########                DOCK_Rotatable_Bonds:                   6
##########                       Formal_Charge:           0.0100005
##########                     HBond_Acceptors:                   7
##########                        HBond_Donors:                   2
##########                         Heavy_Atoms:                  19
##########                          Grid_Score:          -26.078190
##########                     Grid_vdw_energy:          -24.814957
##########                      Grid_es_energy:           -1.263232
##########           Internal_energy_repulsive:           10.636222

@<TRIPOS>MOLECULE
ZINC000863208514
 31 31 1 0 0
SMALL
USER_CHARGES


@<TRIPOS>ATOM
      1 C1          2.7762    2.3774   57.5311 C.3     1  ZINC000863208514    0.0900
      2 N2          1.3334    2.1910   57.7034 N.am    1  ZINC000863208514   -0.6100
      3 C3          0.7784    1.9661   59.0404 C.3     1  ZINC000863208514    0.0700
      4 C4          0.5167    2.2262   56.6318 C.2     1  ZINC000863208514    0.5100
      5 O5          0.9764    2.4108   55.5248 O.2     1  ZINC000863208514   -0.5400
      6 C6         -0.9677    2.0361   56.8093 C.3     1  ZINC000863208514    0.1100
      7 N7         -1.6806    2.7250   55.7306 N.am    1  ZINC000863208514   -0.6600
      8 C8         -1.6854    4.0717   55.6786 C.2     1  ZINC000863208514    0.5600
      9 S9         -0.8601    4.9775   56.8741 S.2     1  ZINC000863208514   -0.6000
     10 N10        -2.3400    4.7054   54.6853 N.am    1  ZINC000863208514   -0.6300
     11 C11        -3.0152    3.9644   53.7073 C.ar    1  ZINC000863208514    0.1200
     12 C12        -2.3273    3.4803   52.6038 C.ar    1  ZINC000863208514   -0.0300
     13 C13        -2.9961    2.7485   51.6397 C.ar    1  ZINC000863208514   -0.0200
     14 Cl14       -2.1357    2.1421   50.2593 Cl      1  ZINC000863208514   -0.0300
     15 C15        -4.3509    2.4984   51.7745 C.ar    1  ZINC000863208514   -0.0600
     16 Br16       -5.2617    1.4972   50.4539 Br      1  ZINC000863208514   -0.0100
     17 C17        -5.0400    2.9792   52.8740 C.ar    1  ZINC000863208514   -0.1100
     18 C18        -4.3754    3.7074   53.8433 C.ar    1  ZINC000863208514    0.1100
     19 F19        -5.0483    4.1768   54.9166 F       1  ZINC000863208514   -0.1200
     20 H20         3.2688    2.3171   58.5016 H       1  ZINC000863208514    0.0800
     21 H21         3.1676    1.5991   56.8760 H       1  ZINC000863208514    0.0700
     22 H22         2.9659    3.3549   57.0875 H       1  ZINC000863208514    0.0700
     23 H23         0.5243    2.9241   59.4941 H       1  ZINC000863208514    0.0700
     24 H24        -0.1185    1.3516   58.9628 H       1  ZINC000863208514    0.0800
     25 H25         1.5164    1.4555   59.6590 H       1  ZINC000863208514    0.0800
     26 H26        -1.2039    0.9725   56.7796 H       1  ZINC000863208514    0.1200
     27 H27        -1.2747    2.4499   57.7698 H       1  ZINC000863208514    0.1200
     28 H28        -2.1493    2.2118   55.0539 H       1  ZINC000863208514    0.4100
     29 H29        -2.3434    5.6747   54.6479 H       1  ZINC000863208514    0.4200
     30 H30        -1.2704    3.6751   52.4977 H       1  ZINC000863208514    0.1800
     31 H31        -6.0970    2.7828   52.9766 H       1  ZINC000863208514    0.1600
@<TRIPOS>BOND
     1     1     2    1
     2     1    20    1
     3     1    21    1
     4     1    22    1
     5     2     3    1
     6     2     4   am
     7     3    23    1
     8     3    24    1
     9     3    25    1
    10     4     5    2
    11     4     6    1
    12     6     7    1
    13     6    26    1
    14     6    27    1
    15     7     8   am
    16     7    28    1
    17     8     9    2
    18     8    10   am
    19    10    11    1
    20    10    29    1
    21    11    18   ar
    22    11    12   ar
    23    12    13   ar
    24    12    30    1
    25    13    14    1
    26    13    15   ar
    27    15    16    1
    28    15    17   ar
    29    17    18   ar
    30    17    31    1
    31    18    19    1
@<TRIPOS>SUBSTRUCTURE
     1 ZINC000863208514        1 TEMP              0 ****  ****    0 ROOT


##########                                Name:    ZINC001211202056
##########                DOCK_Rotatable_Bonds:                   4
##########                         Heavy_Atoms:                  23
##########                    Molecular_Weight:             386.181
##########                DOCK_Rotatable_Bonds:                   4
##########                       Formal_Charge:           0.0199999
##########                     HBond_Acceptors:                  11
##########                        HBond_Donors:                   3
##########                         Heavy_Atoms:                  23
##########                          Grid_Score:          -26.057922
##########                     Grid_vdw_energy:          -24.297268
##########                      Grid_es_energy:           -1.760654
##########           Internal_energy_repulsive:           16.123667

@<TRIPOS>MOLECULE
ZINC001211202056
 31 32 1 0 0
SMALL
USER_CHARGES


@<TRIPOS>ATOM
      1 N1         -1.5950    2.4584   58.5319 N.pl3   1  ZINC001211202056   -0.8500
      2 C2         -1.2223    3.0826   57.3384 C.ar    1  ZINC001211202056    0.2900
      3 C3         -0.2733    2.4949   56.5127 C.ar    1  ZINC001211202056   -0.2000
      4 C4          0.0931    3.1145   55.3335 C.ar    1  ZINC001211202056    0.0400
      5 C5         -0.4835    4.3187   54.9748 C.ar    1  ZINC001211202056   -0.7300
      6 S6         -0.0129    5.1050   53.4699 S.o2    1  ZINC001211202056    2.6900
      7 O7         -0.9242    6.1779   53.2756 O.2     1  ZINC001211202056   -0.9400
      8 O8          1.3954    5.2834   53.5337 O.2     1  ZINC001211202056   -0.9300
      9 N9         -0.2925    4.0263   52.2450 N.am    1  ZINC001211202056   -1.0500
     10 C10        -1.5843    3.5412   52.0221 C.ar    1  ZINC001211202056    0.1600
     11 C11        -2.6375    3.9333   52.8434 C.ar    1  ZINC001211202056   -0.1200
     12 C12        -3.9005    3.4257   52.5824 C.ar    1  ZINC001211202056   -0.0800
     13 C13        -4.0727    2.5539   51.5244 C.ar    1  ZINC001211202056    0.0400
     14 C14        -5.4435    1.9985   51.2353 C.3     1  ZINC001211202056    0.5300
     15 F15        -5.3216    0.7142   50.6940 F       1  ZINC001211202056   -0.1700
     16 F16        -6.1813    1.9361   52.4224 F       1  ZINC001211202056   -0.1600
     17 F17        -6.1003    2.8294   50.3213 F       1  ZINC001211202056   -0.1700
     18 N18        -3.0546    2.2011   50.7633 N.ar    1  ZINC001211202056   -0.4100
     19 C19        -1.8377    2.6639   50.9732 C.ar    1  ZINC001211202056    0.1600
     20 Cl20       -0.5373    2.1637   49.9375 Cl      1  ZINC001211202056    0.0000
     21 C21        -1.4293    4.9077   55.7946 C.ar    1  ZINC001211202056    0.0400
     22 C22        -1.8049    4.2906   56.9723 C.ar    1  ZINC001211202056   -0.1400
     23 Cl23       -2.9920    5.0301   58.0008 Cl      1  ZINC001211202056   -0.0500
     24 H24        -2.2610    2.8680   59.1060 H       1  ZINC001211202056    0.4100
     25 H25        -1.1906    1.6136   58.7843 H       1  ZINC001211202056    0.4100
     26 H26         0.1783    1.5545   56.7921 H       1  ZINC001211202056    0.1400
     27 H27         0.8312    2.6576   54.6909 H       1  ZINC001211202056    0.1500
     28 H28         0.4402    3.7311   51.6821 H       1  ZINC001211202056    0.4400
     29 H29        -2.4744    4.6162   53.6640 H       1  ZINC001211202056    0.2000
     30 H30        -4.7407    3.7083   53.1993 H       1  ZINC001211202056    0.1700
     31 H31        -1.8778    5.8485   55.5115 H       1  ZINC001211202056    0.1500
@<TRIPOS>BOND
     1     1     2    1
     2     1    24    1
     3     1    25    1
     4     2    22   ar
     5     2     3   ar
     6     3     4   ar
     7     3    26    1
     8     4     5   ar
     9     4    27    1
    10     5     6    1
    11     5    21   ar
    12     6     7    2
    13     6     8    2
    14     6     9   am
    15     9    10    1
    16     9    28    1
    17    10    19   ar
    18    10    11   ar
    19    11    12   ar
    20    11    29    1
    21    12    13   ar
    22    12    30    1
    23    13    14    1
    24    13    18   ar
    25    14    15    1
    26    14    16    1
    27    14    17    1
    28    18    19   ar
    29    19    20    1
    30    21    22   ar
    31    21    31    1
    32    22    23    1
@<TRIPOS>SUBSTRUCTURE
     1 ZINC001211202056        1 TEMP              0 ****  ****    0 ROOT


##########                                Name:    ZINC000506388363
##########                DOCK_Rotatable_Bonds:                   5
##########                         Heavy_Atoms:                  29
##########                    Molecular_Weight:             416.858
##########                DOCK_Rotatable_Bonds:                   5
##########                       Formal_Charge:         7.07805e-07
##########                     HBond_Acceptors:                   8
##########                        HBond_Donors:                   1
##########                         Heavy_Atoms:                  29
##########                          Grid_Score:          -26.004076
##########                     Grid_vdw_energy:          -23.661318
##########                      Grid_es_energy:           -2.342758
##########           Internal_energy_repulsive:           15.809654

@<TRIPOS>MOLECULE
ZINC000506388363
 48 51 1 0 0
SMALL
USER_CHARGES


@<TRIPOS>ATOM
      1 O1        -12.0135   -0.7867   61.3281 O.2     1  ZINC000506388363   -0.5300
      2 C2        -10.9573   -0.2601   61.6189 C.2     1  ZINC000506388363    0.5600
      3 C3        -10.7746    0.3404   62.9576 C.ar    1  ZINC000506388363   -0.1200
      4 C4        -11.4107    1.5400   63.2802 C.ar    1  ZINC000506388363   -0.0900
      5 C5        -11.2369    2.0955   64.5313 C.ar    1  ZINC000506388363   -0.1100
      6 C6        -10.4335    1.4666   65.4652 C.ar    1  ZINC000506388363   -0.0900
      7 C7         -9.7990    0.2761   65.1521 C.ar    1  ZINC000506388363   -0.0400
      8 Cl8        -8.7932   -0.5058   66.3313 Cl      1  ZINC000506388363   -0.0600
      9 C9         -9.9696   -0.2929   63.9058 C.ar    1  ZINC000506388363   -0.0600
     10 N10        -9.9508   -0.2284   60.7230 N.am    1  ZINC000506388363   -0.6100
     11 C11       -10.1137   -0.8145   59.3839 C.3     1  ZINC000506388363    0.1000
     12 C12        -9.6924    0.2274   58.3421 C.3     1  ZINC000506388363    0.0400
     13 N13        -8.3376    0.7040   58.6511 N.3     1  ZINC000506388363   -0.5300
     14 C14        -7.8293    1.5745   57.5825 C.3     1  ZINC000506388363    0.1200
     15 C15        -8.8247    2.6736   57.3140 C.2     1  ZINC000506388363   -0.2100
     16 C16        -9.0154    3.7765   58.0703 C.2     1  ZINC000506388363    0.0600
     17 N17        -9.9919    4.5118   57.4966 N.pl3   1  ZINC000506388363   -0.4700
     18 N18       -10.4223    3.8419   56.3442 N.2     1  ZINC000506388363   -0.2700
     19 C19        -9.7176    2.7365   56.2263 C.2     1  ZINC000506388363    0.1300
     20 C20        -9.8482    1.7290   55.1447 C.ar    1  ZINC000506388363   -0.0700
     21 C21       -10.9873    0.9272   55.0679 C.ar    1  ZINC000506388363    0.1500
     22 F22       -11.9756    1.0661   55.9785 F       1  ZINC000506388363   -0.1200
     23 C23       -11.1027   -0.0096   54.0576 C.ar    1  ZINC000506388363   -0.1600
     24 C24       -10.0922   -0.1528   53.1245 C.ar    1  ZINC000506388363   -0.0500
     25 C25        -8.9604    0.6389   53.1950 C.ar    1  ZINC000506388363   -0.1600
     26 C26        -8.8351    1.5835   54.1968 C.ar    1  ZINC000506388363    0.1600
     27 F27        -7.7289    2.3561   54.2644 F       1  ZINC000506388363   -0.1200
     28 C28        -8.2965    1.3872   59.9509 C.3     1  ZINC000506388363    0.0400
     29 C29        -8.6628    0.3984   61.0565 C.3     1  ZINC000506388363    0.1200
     30 H30       -12.0378    2.0327   62.5518 H       1  ZINC000506388363    0.1400
     31 H31       -11.7290    3.0237   64.7816 H       1  ZINC000506388363    0.1400
     32 H32       -10.3002    1.9061   66.4427 H       1  ZINC000506388363    0.1400
     33 H33        -9.4748   -1.2214   63.6624 H       1  ZINC000506388363    0.1400
     34 H34        -9.4837   -1.6992   59.2924 H       1  ZINC000506388363    0.0800
     35 H35       -11.1574   -1.0869   59.2279 H       1  ZINC000506388363    0.1000
     36 H36        -9.7013   -0.2254   57.3507 H       1  ZINC000506388363    0.0900
     37 H37       -10.3873    1.0668   58.3655 H       1  ZINC000506388363    0.0400
     38 H38        -6.8797    2.0117   57.8909 H       1  ZINC000506388363    0.1000
     39 H39        -7.6820    0.9882   56.6756 H       1  ZINC000506388363    0.0400
     40 H40        -8.4810    4.0262   58.9750 H       1  ZINC000506388363    0.1800
     41 H41       -10.3360    5.3570   57.8256 H       1  ZINC000506388363    0.4400
     42 H42       -11.9839   -0.6312   53.9973 H       1  ZINC000506388363    0.1500
     43 H43       -10.1870   -0.8862   52.3375 H       1  ZINC000506388363    0.1500
     44 H44        -8.1747    0.5219   52.4634 H       1  ZINC000506388363    0.1500
     45 H45        -7.2933    1.7756   60.1261 H       1  ZINC000506388363    0.0900
     46 H46        -9.0110    2.2104   59.9518 H       1  ZINC000506388363    0.0400
     47 H47        -8.7455    0.9257   62.0068 H       1  ZINC000506388363    0.1000
     48 H48        -7.8950   -0.3722   61.1277 H       1  ZINC000506388363    0.0800
@<TRIPOS>BOND
     1     1     2    2
     2     2     3    1
     3     2    10   am
     4     3     9   ar
     5     3     4   ar
     6     4     5   ar
     7     4    30    1
     8     5     6   ar
     9     5    31    1
    10     6     7   ar
    11     6    32    1
    12     7     8    1
    13     7     9   ar
    14     9    33    1
    15    10    29    1
    16    10    11    1
    17    11    12    1
    18    11    34    1
    19    11    35    1
    20    12    13    1
    21    12    36    1
    22    12    37    1
    23    13    14    1
    24    13    28    1
    25    14    15    1
    26    14    38    1
    27    14    39    1
    28    15    19    1
    29    15    16    2
    30    16    17    1
    31    16    40    1
    32    17    18    1
    33    17    41    1
    34    18    19    2
    35    19    20    1
    36    20    26   ar
    37    20    21   ar
    38    21    22    1
    39    21    23   ar
    40    23    24   ar
    41    23    42    1
    42    24    25   ar
    43    24    43    1
    44    25    26   ar
    45    25    44    1
    46    26    27    1
    47    28    29    1
    48    28    45    1
    49    28    46    1
    50    29    47    1
    51    29    48    1
@<TRIPOS>SUBSTRUCTURE
     1 ZINC000506388363        1 TEMP              0 ****  ****    0 ROOT


##########                                Name:    ZINC001231746020
##########                DOCK_Rotatable_Bonds:                   3
##########                         Heavy_Atoms:                  19
##########                    Molecular_Weight:             348.667
##########                DOCK_Rotatable_Bonds:                   3
##########                       Formal_Charge:          -0.0399997
##########                     HBond_Acceptors:                   4
##########                        HBond_Donors:                   2
##########                         Heavy_Atoms:                  19
##########                          Grid_Score:          -25.949459
##########                     Grid_vdw_energy:          -24.962002
##########                      Grid_es_energy:           -0.987457
##########           Internal_energy_repulsive:           15.277126

@<TRIPOS>MOLECULE
ZINC001231746020
 38 39 1 0 0
SMALL
USER_CHARGES


@<TRIPOS>ATOM
      1 C1         -7.6770    2.5337   54.7861 C.3     1  ZINC001231746020   -0.1500
      2 C2         -6.7561    2.7107   53.5772 C.3     1  ZINC001231746020   -0.0900
      3 H3         -5.7161    2.6707   53.9013 H       1  ZINC001231746020    0.0800
      4 C4         -7.0162    1.6134   52.5800 C.3     1  ZINC001231746020   -0.1400
      5 C5         -5.7691    1.2081   51.7737 C.3     1  ZINC001231746020   -0.0100
      6 N6         -4.9588    2.3588   51.3202 N.4     1  ZINC001231746020   -0.3800
      7 H7         -4.3997    2.6911   52.0917 H       1  ZINC001231746020    0.4100
      8 C8         -4.0673    1.9191   50.2387 C.3     1  ZINC001231746020    0.0700
      9 C9         -2.6571    2.3559   50.5412 C.ar    1  ZINC001231746020   -0.3100
     10 C10        -1.6277    2.0035   49.6884 C.ar    1  ZINC001231746020   -0.0300
     11 C11        -0.3329    2.4034   49.9633 C.ar    1  ZINC001231746020   -0.1600
     12 Cl12        0.9592    1.9604   48.8919 Cl      1  ZINC001231746020   -0.0800
     13 C13        -0.0673    3.1587   51.0968 C.ar    1  ZINC001231746020    0.3100
     14 O14         1.2046    3.5536   51.3693 O.3     1  ZINC001231746020   -0.6300
     15 C15        -1.1027    3.5106   51.9513 C.ar    1  ZINC001231746020   -0.2100
     16 Br16       -0.7457    4.5397   53.4971 Br      1  ZINC001231746020   -0.0600
     17 C17        -2.3960    3.1133   51.6683 C.ar    1  ZINC001231746020   -0.0200
     18 C18        -5.7824    3.4413   50.8390 C.3     1  ZINC001231746020   -0.0200
     19 C19        -5.9650    4.4433   51.9905 C.3     1  ZINC001231746020   -0.1800
     20 C20        -7.0406    4.0765   52.9035 C.3     1  ZINC001231746020    0.1000
     21 H21        -7.1335    4.8427   53.6732 H       1  ZINC001231746020    0.0700
     22 O22        -8.2670    3.9939   52.1746 O.3     1  ZINC001231746020   -0.5600
     23 H23        -7.4835    1.5674   55.2519 H       1  ZINC001231746020    0.0600
     24 H24        -8.7164    2.5786   54.4607 H       1  ZINC001231746020    0.0700
     25 H25        -7.4873    3.3291   55.5069 H       1  ZINC001231746020    0.0600
     26 H26        -7.3867    0.7379   53.1132 H       1  ZINC001231746020    0.1000
     27 H27        -7.7854    1.9489   51.8844 H       1  ZINC001231746020    0.1000
     28 H28        -5.1454    0.5657   52.3953 H       1  ZINC001231746020    0.1200
     29 H29        -6.0881    0.6402   50.8999 H       1  ZINC001231746020    0.1200
     30 H30        -4.1018    0.8325   50.1585 H       1  ZINC001231746020    0.1200
     31 H31        -4.3913    2.3634   49.2975 H       1  ZINC001231746020    0.1200
     32 H32        -1.8351    1.4156   48.8065 H       1  ZINC001231746020    0.1100
     33 H33        -3.2029    3.3912   52.3303 H       1  ZINC001231746020    0.1100
     34 H34        -5.2925    3.9316   49.9976 H       1  ZINC001231746020    0.1400
     35 H35        -6.7530    3.0558   50.5270 H       1  ZINC001231746020    0.1300
     36 H36        -5.0334    4.5041   52.5531 H       1  ZINC001231746020    0.0900
     37 H37        -6.1842    5.4246   51.5698 H       1  ZINC001231746020    0.1100
     38 H38        -8.3542    3.1920   51.6413 H       1  ZINC001231746020    0.3900
@<TRIPOS>BOND
     1     1     2    1
     2     1    23    1
     3     1    24    1
     4     1    25    1
     5     2     3    1
     6     2    20    1
     7     2     4    1
     8     4     5    1
     9     4    26    1
    10     4    27    1
    11     5     6    1
    12     5    28    1
    13     5    29    1
    14     6     7    1
    15     6     8    1
    16     6    18    1
    17     8     9    1
    18     8    30    1
    19     8    31    1
    20     9    17   ar
    21     9    10   ar
    22    10    11   ar
    23    10    32    1
    24    11    12    1
    25    11    13   ar
    26    13    14    1
    27    13    15   ar
    28    15    16    1
    29    15    17   ar
    30    17    33    1
    31    18    19    1
    32    18    34    1
    33    18    35    1
    34    19    20    1
    35    19    36    1
    36    19    37    1
    37    20    21    1
    38    20    22    1
    39    22    38    1
@<TRIPOS>SUBSTRUCTURE
     1 ZINC001231746020        1 TEMP              0 ****  ****    0 ROOT


##########                                Name:    ZINC001176298561
##########                DOCK_Rotatable_Bonds:                   6
##########                         Heavy_Atoms:                  23
##########                    Molecular_Weight:             337.781
##########                DOCK_Rotatable_Bonds:                   6
##########                       Formal_Charge:          -0.0100003
##########                     HBond_Acceptors:                   7
##########                        HBond_Donors:                   2
##########                         Heavy_Atoms:                  23
##########                          Grid_Score:          -25.946489
##########                     Grid_vdw_energy:          -24.975073
##########                      Grid_es_energy:           -0.971416
##########           Internal_energy_repulsive:           12.131824

@<TRIPOS>MOLECULE
ZINC001176298561
 40 41 1 0 0
SMALL
USER_CHARGES


@<TRIPOS>ATOM
      1 C1         -8.7539    0.3237   61.9233 C.3     1  ZINC001176298561   -0.1700
      2 C2         -8.7391   -0.4169   60.5846 C.3     1  ZINC001176298561    0.1100
      3 N3         -9.0368    0.5247   59.5025 N.am    1  ZINC001176298561   -0.6100
      4 C4        -10.3425    1.1867   59.4461 C.3     1  ZINC001176298561    0.0900
      5 C5        -11.2150    0.5046   58.3903 C.3     1  ZINC001176298561   -0.1800
      6 C6         -8.1096    0.7820   58.5589 C.2     1  ZINC001176298561    0.5600
      7 O7         -7.0262    0.2328   58.6057 O.2     1  ZINC001176298561   -0.5300
      8 C8         -8.4101    1.7324   57.4666 C.ar    1  ZINC001176298561   -0.0600
      9 C9         -8.4443    3.1040   57.7222 C.ar    1  ZINC001176298561   -0.1900
     10 C10        -8.7256    3.9907   56.6991 C.ar    1  ZINC001176298561    0.1400
     11 F11        -8.7579    5.3182   56.9480 F       1  ZINC001176298561   -0.1300
     12 C12        -8.9736    3.5219   55.4207 C.ar    1  ZINC001176298561   -0.1800
     13 C13        -8.9414    2.1572   55.1580 C.ar    1  ZINC001176298561    0.2400
     14 N14        -9.1918    1.6888   53.8662 N.pl3   1  ZINC001176298561   -0.6700
     15 C15        -8.1303    1.2682   53.0559 C.2     1  ZINC001176298561    0.0400
     16 C16        -7.1912    2.1651   52.6248 C.2     1  ZINC001176298561   -0.0300
     17 C17        -6.1373    1.7172   51.8142 C.2     1  ZINC001176298561   -0.1300
     18 Cl18       -4.9351    2.8384   51.2562 Cl      1  ZINC001176298561   -0.0400
     19 C19        -6.0573    0.4116   51.4675 C.2     1  ZINC001176298561    0.1400
     20 N20        -6.9906   -0.4815   51.8956 N.am    1  ZINC001176298561   -0.6000
     21 C21        -8.0129   -0.0876   52.6788 C.2     1  ZINC001176298561    0.5100
     22 O22        -8.8422   -0.9004   53.0553 O.2     1  ZINC001176298561   -0.5200
     23 C23        -8.6544    1.2611   56.1769 C.ar    1  ZINC001176298561   -0.1300
     24 H24        -8.5322   -0.3768   62.7285 H       1  ZINC001176298561    0.0700
     25 H25        -8.0016    1.1124   61.9106 H       1  ZINC001176298561    0.0600
     26 H26        -9.7382    0.7631   62.0847 H       1  ZINC001176298561    0.0600
     27 H27        -7.7546   -0.8562   60.4233 H       1  ZINC001176298561    0.0800
     28 H28        -9.4913   -1.2056   60.5973 H       1  ZINC001176298561    0.0900
     29 H29       -10.8280    1.1163   60.4194 H       1  ZINC001176298561    0.0900
     30 H30       -10.2069    2.2358   59.1828 H       1  ZINC001176298561    0.0800
     31 H31       -11.0657   -0.5741   58.4373 H       1  ZINC001176298561    0.0700
     32 H32       -12.2632    0.7351   58.5811 H       1  ZINC001176298561    0.0700
     33 H33       -10.9377    0.8671   57.4005 H       1  ZINC001176298561    0.0600
     34 H34        -8.2515    3.4727   58.7188 H       1  ZINC001176298561    0.1500
     35 H35        -9.1932    4.2185   54.6250 H       1  ZINC001176298561    0.1300
     36 H36       -10.1012    1.6549   53.5304 H       1  ZINC001176298561    0.4200
     37 H37        -7.2606    3.2057   52.9049 H       1  ZINC001176298561    0.1500
     38 H38        -5.2431    0.0743   50.8432 H       1  ZINC001176298561    0.1800
     39 H39        -6.9167   -1.4133   51.6364 H       1  ZINC001176298561    0.4300
     40 H40        -8.6291    0.2006   55.9741 H       1  ZINC001176298561    0.1400
@<TRIPOS>BOND
     1     1     2    1
     2     1    24    1
     3     1    25    1
     4     1    26    1
     5     2     3    1
     6     2    27    1
     7     2    28    1
     8     3     4    1
     9     3     6   am
    10     4     5    1
    11     4    29    1
    12     4    30    1
    13     5    31    1
    14     5    32    1
    15     5    33    1
    16     6     7    2
    17     6     8    1
    18     8    23   ar
    19     8     9   ar
    20     9    10   ar
    21     9    34    1
    22    10    11    1
    23    10    12   ar
    24    12    13   ar
    25    12    35    1
    26    13    14    1
    27    13    23   ar
    28    14    15    1
    29    14    36    1
    30    15    21    1
    31    15    16    2
    32    16    17    1
    33    16    37    1
    34    17    18    1
    35    17    19    2
    36    19    20    1
    37    19    38    1
    38    20    21   am
    39    20    39    1
    40    21    22    2
    41    23    40    1
@<TRIPOS>SUBSTRUCTURE
     1 ZINC001176298561        1 TEMP              0 ****  ****    0 ROOT


##########                                Name:    ZINC000186105981
##########                DOCK_Rotatable_Bonds:                   6
##########                         Heavy_Atoms:                  26
##########                    Molecular_Weight:             396.873
##########                DOCK_Rotatable_Bonds:                   6
##########                       Formal_Charge:          -0.0400003
##########                     HBond_Acceptors:                   9
##########                        HBond_Donors:                   1
##########                         Heavy_Atoms:                  26
##########                          Grid_Score:          -25.943651
##########                     Grid_vdw_energy:          -25.607681
##########                      Grid_es_energy:           -0.335970
##########           Internal_energy_repulsive:           16.381306

@<TRIPOS>MOLECULE
ZINC000186105981
 44 46 1 0 0
SMALL
USER_CHARGES


@<TRIPOS>ATOM
      1 C1        -13.0769   -0.8960   59.1453 C.3     1  ZINC000186105981   -0.1400
      2 C2        -12.0600   -0.5123   58.0685 C.3     1  ZINC000186105981   -0.1100
      3 C3        -10.7467   -0.0945   58.7330 C.3     1  ZINC000186105981   -0.1600
      4 C4        -11.8091   -1.7124   57.1533 C.3     1  ZINC000186105981    0.1600
      5 H5        -11.3900   -2.5326   57.7361 H       1  ZINC000186105981    0.1200
      6 C6        -10.8404   -1.3219   56.0669 C.2     1  ZINC000186105981    0.4900
      7 O7        -10.1595   -2.1688   55.5283 O.2     1  ZINC000186105981   -0.4300
      8 N8        -10.7305   -0.0314   55.6939 N.am    1  ZINC000186105981   -0.6300
      9 C9         -9.8372    0.3288   54.6921 C.2     1  ZINC000186105981    0.2400
     10 N10       -10.0298    0.2009   53.4102 N.2     1  ZINC000186105981   -0.2600
     11 N11        -9.1086    0.5818   52.6377 N.2     1  ZINC000186105981   -0.2000
     12 C12        -8.0304    1.0760   53.1785 C.2     1  ZINC000186105981    0.0300
     13 C13        -6.8436    1.5766   52.4536 C.ar    1  ZINC000186105981   -0.0500
     14 C14        -6.1587    0.7418   51.5668 C.ar    1  ZINC000186105981    0.1300
     15 F15        -6.5792   -0.5269   51.3690 F       1  ZINC000186105981   -0.1200
     16 C16        -5.0499    1.2175   50.8923 C.ar    1  ZINC000186105981   -0.1400
     17 C17        -4.6189    2.5161   51.0936 C.ar    1  ZINC000186105981   -0.0600
     18 C18        -5.2923    3.3478   51.9706 C.ar    1  ZINC000186105981   -0.1200
     19 C19        -6.4048    2.8885   52.6472 C.ar    1  ZINC000186105981    0.0200
     20 Cl20       -7.2480    3.9345   53.7464 Cl      1  ZINC000186105981   -0.0100
     21 S21        -8.2433    1.0478   54.9302 S.3     1  ZINC000186105981    0.1200
     22 N22       -13.0739   -2.1388   56.5494 N.am    1  ZINC000186105981   -0.6100
     23 C23       -13.9554   -1.2629   55.7683 C.3     1  ZINC000186105981    0.1000
     24 C24       -14.8957   -2.2112   54.9918 C.3     1  ZINC000186105981   -0.1300
     25 C25       -14.8884   -3.4688   55.8914 C.3     1  ZINC000186105981   -0.1600
     26 C26       -13.5734   -3.3838   56.6345 C.2     1  ZINC000186105981    0.5200
     27 O27       -13.0496   -4.3033   57.2270 O.2     1  ZINC000186105981   -0.5000
     28 H28       -13.2555   -0.0410   59.7974 H       1  ZINC000186105981    0.0600
     29 H29       -14.0125   -1.1937   58.6719 H       1  ZINC000186105981    0.0600
     30 H30       -12.6871   -1.7266   59.7338 H       1  ZINC000186105981    0.0600
     31 H31       -12.4497    0.3182   57.4801 H       1  ZINC000186105981    0.0900
     32 H32       -10.3092   -0.9520   59.2445 H       1  ZINC000186105981    0.0600
     33 H33       -10.0540    0.2675   57.9732 H       1  ZINC000186105981    0.0600
     34 H34       -10.9410    0.6987   59.4549 H       1  ZINC000186105981    0.0700
     35 H35       -11.2750    0.6460   56.1247 H       1  ZINC000186105981    0.4200
     36 H36        -4.5190    0.5737   50.2067 H       1  ZINC000186105981    0.1500
     37 H37        -3.7521    2.8826   50.5639 H       1  ZINC000186105981    0.1500
     38 H38        -4.9495    4.3606   52.1230 H       1  ZINC000186105981    0.1500
     39 H39       -14.5327   -0.6198   56.4324 H       1  ZINC000186105981    0.0700
     40 H40       -13.3696   -0.6606   55.0739 H       1  ZINC000186105981    0.0800
     41 H41       -15.8986   -1.7910   54.9170 H       1  ZINC000186105981    0.0900
     42 H42       -14.4939   -2.4360   54.0038 H       1  ZINC000186105981    0.0800
     43 H43       -15.7267   -3.4447   56.5877 H       1  ZINC000186105981    0.1100
     44 H44       -14.9221   -4.3730   55.2834 H       1  ZINC000186105981    0.1000
@<TRIPOS>BOND
     1     1     2    1
     2     1    28    1
     3     1    29    1
     4     1    30    1
     5     2     3    1
     6     2     4    1
     7     2    31    1
     8     3    32    1
     9     3    33    1
    10     3    34    1
    11     4     5    1
    12     4     6    1
    13     4    22    1
    14     6     7    2
    15     6     8   am
    16     8     9    1
    17     8    35    1
    18     9    21    1
    19     9    10    2
    20    10    11    1
    21    11    12    2
    22    12    13    1
    23    12    21    1
    24    13    19   ar
    25    13    14   ar
    26    14    15    1
    27    14    16   ar
    28    16    17   ar
    29    16    36    1
    30    17    18   ar
    31    17    37    1
    32    18    19   ar
    33    18    38    1
    34    19    20    1
    35    22    26   am
    36    22    23    1
    37    23    24    1
    38    23    39    1
    39    23    40    1
    40    24    25    1
    41    24    41    1
    42    24    42    1
    43    25    26    1
    44    25    43    1
    45    25    44    1
    46    26    27    2
@<TRIPOS>SUBSTRUCTURE
     1 ZINC000186105981        1 TEMP              0 ****  ****    0 ROOT


##########                                Name:    ZINC000618094467
##########                DOCK_Rotatable_Bonds:                   5
##########                         Heavy_Atoms:                  27
##########                    Molecular_Weight:             370.492
##########                DOCK_Rotatable_Bonds:                   5
##########                       Formal_Charge:                0.03
##########                     HBond_Acceptors:                   5
##########                        HBond_Donors:                   0
##########                         Heavy_Atoms:                  27
##########                          Grid_Score:          -25.861935
##########                     Grid_vdw_energy:          -24.024113
##########                      Grid_es_energy:           -1.837823
##########           Internal_energy_repulsive:           74.784233

@<TRIPOS>MOLECULE
ZINC000618094467
 57 59 1 0 0
SMALL
USER_CHARGES


@<TRIPOS>ATOM
      1 C1        -10.4318    3.8811   51.2172 C.3     1  ZINC000618094467   -0.1500
      2 C2         -9.5436    4.9353   50.5533 C.3     1  ZINC000618094467   -0.1000
      3 C3         -8.1003    4.4299   50.5062 C.3     1  ZINC000618094467   -0.1100
      4 H4         -8.0853    3.4080   50.1271 H       1  ZINC000618094467    0.1000
      5 C5         -7.2752    5.3284   49.5827 C.3     1  ZINC000618094467   -0.1500
      6 C6         -7.5119    4.4599   51.8932 C.2     1  ZINC000618094467    0.5200
      7 O7         -7.9300    5.2506   52.7123 O.2     1  ZINC000618094467   -0.5000
      8 N8         -6.5212    3.6080   52.2237 N.am    1  ZINC000618094467   -0.6100
      9 C9         -5.9937    2.6397   51.2563 C.3     1  ZINC000618094467    0.1400
     10 C10        -4.4870    2.6276   51.3200 C.ar    1  ZINC000618094467   -0.1000
     11 C11        -3.8018    1.9573   50.3163 C.ar    1  ZINC000618094467   -0.1100
     12 C12        -2.4230    1.9025   50.3256 C.ar    1  ZINC000618094467   -0.1200
     13 C13        -1.7195    2.5189   51.3433 C.ar    1  ZINC000618094467   -0.1100
     14 C14        -2.3993    3.1889   52.3392 C.ar    1  ZINC000618094467   -0.1200
     15 C15        -3.7873    3.2509   52.3291 C.ar    1  ZINC000618094467   -0.0600
     16 C16        -4.4598    4.0230   53.4335 C.3     1  ZINC000618094467   -0.0800
     17 C17        -5.9210    3.6162   53.5679 C.3     1  ZINC000618094467    0.1200
     18 H18        -5.9875    2.6187   54.0024 H       1  ZINC000618094467    0.1000
     19 C19        -6.6464    4.6037   54.4453 C.2     1  ZINC000618094467    0.5500
     20 O20        -6.2058    5.7243   54.5899 O.2     1  ZINC000618094467   -0.5200
     21 N21        -7.7848    4.2414   55.0691 N.am    1  ZINC000618094467   -0.6100
     22 C22        -8.3226    2.8848   54.9047 C.3     1  ZINC000618094467    0.1200
     23 C23        -8.4473    2.2322   56.2873 C.3     1  ZINC000618094467   -0.1600
     24 H24        -9.0186    1.3074   56.2064 H       1  ZINC000618094467    0.1100
     25 C25        -7.0537    1.9298   56.8417 C.3     1  ZINC000618094467   -0.1400
     26 C26        -9.1645    3.1952   57.2077 C.2     1  ZINC000618094467    0.3700
     27 O27       -10.1388    2.8464   57.8301 O.2     1  ZINC000618094467   -0.4400
     28 C28        -8.6311    4.6057   57.3300 C.3     1  ZINC000618094467   -0.1600
     29 H29        -7.6536    4.5880   57.8118 H       1  ZINC000618094467    0.1100
     30 C30        -9.5988    5.4523   58.1592 C.3     1  ZINC000618094467   -0.1400
     31 C31        -8.4986    5.1970   55.9261 C.3     1  ZINC000618094467    0.1400
     32 H32       -10.0786    3.6951   52.2315 H       1  ZINC000618094467    0.0500
     33 H33       -11.4600    4.2412   51.2507 H       1  ZINC000618094467    0.0600
     34 H34       -10.3893    2.9560   50.6423 H       1  ZINC000618094467    0.0600
     35 H35        -9.8967    5.1213   49.5390 H       1  ZINC000618094467    0.0700
     36 H36        -9.5860    5.8604   51.1282 H       1  ZINC000618094467    0.0700
     37 H37        -7.4015    6.3692   49.8806 H       1  ZINC000618094467    0.0700
     38 H38        -6.2225    5.0549   49.6553 H       1  ZINC000618094467    0.0700
     39 H39        -7.6136    5.2010   48.5544 H       1  ZINC000618094467    0.0700
     40 H40        -6.3747    1.6463   51.4929 H       1  ZINC000618094467    0.0900
     41 H41        -6.3121    2.9199   50.2522 H       1  ZINC000618094467    0.1100
     42 H42        -4.3519    1.4744   49.5221 H       1  ZINC000618094467    0.1300
     43 H43        -1.8956    1.3799   49.5413 H       1  ZINC000618094467    0.1300
     44 H44        -0.6404    2.4760   51.3588 H       1  ZINC000618094467    0.1200
     45 H45        -1.8479    3.6692   53.1340 H       1  ZINC000618094467    0.1200
     46 H46        -3.9437    3.8272   54.3735 H       1  ZINC000618094467    0.0900
     47 H47        -4.4052    5.0886   53.2106 H       1  ZINC000618094467    0.1000
     48 H48        -9.3047    2.9356   54.4347 H       1  ZINC000618094467    0.0700
     49 H49        -7.6475    2.2970   54.2827 H       1  ZINC000618094467    0.0900
     50 H50        -6.5191    2.8645   57.0108 H       1  ZINC000618094467    0.0600
     51 H51        -7.1468    1.3890   57.7836 H       1  ZINC000618094467    0.0600
     52 H52        -6.5023    1.3202   56.1259 H       1  ZINC000618094467    0.0700
     53 H53        -9.7017    5.0174   59.1534 H       1  ZINC000618094467    0.0700
     54 H54        -9.2114    6.4676   58.2452 H       1  ZINC000618094467    0.0700
     55 H55       -10.5725    5.4752   57.6701 H       1  ZINC000618094467    0.0600
     56 H56        -7.9413    6.1325   55.9747 H       1  ZINC000618094467    0.1100
     57 H57        -9.4899    5.3808   55.5119 H       1  ZINC000618094467    0.0700
@<TRIPOS>BOND
     1     1     2    1
     2     1    32    1
     3     1    33    1
     4     1    34    1
     5     2     3    1
     6     2    35    1
     7     2    36    1
     8     3     4    1
     9     3     5    1
    10     3     6    1
    11     5    37    1
    12     5    38    1
    13     5    39    1
    14     6     7    2
    15     6     8   am
    16     8    17    1
    17     8     9    1
    18     9    10    1
    19     9    40    1
    20     9    41    1
    21    10    15   ar
    22    10    11   ar
    23    11    12   ar
    24    11    42    1
    25    12    13   ar
    26    12    43    1
    27    13    14   ar
    28    13    44    1
    29    14    15   ar
    30    14    45    1
    31    15    16    1
    32    16    17    1
    33    16    46    1
    34    16    47    1
    35    17    18    1
    36    17    19    1
    37    19    20    2
    38    19    21   am
    39    21    31    1
    40    21    22    1
    41    22    23    1
    42    22    48    1
    43    22    49    1
    44    23    24    1
    45    23    25    1
    46    23    26    1
    47    25    50    1
    48    25    51    1
    49    25    52    1
    50    26    27    2
    51    26    28    1
    52    28    29    1
    53    28    30    1
    54    28    31    1
    55    30    53    1
    56    30    54    1
    57    30    55    1
    58    31    56    1
    59    31    57    1
@<TRIPOS>SUBSTRUCTURE
     1 ZINC000618094467        1 TEMP              0 ****  ****    0 ROOT


##########                                Name:    ZINC000956479608
##########                DOCK_Rotatable_Bonds:                   5
##########                         Heavy_Atoms:                  25
##########                    Molecular_Weight:             345.442
##########                DOCK_Rotatable_Bonds:                   5
##########                       Formal_Charge:          -0.0100001
##########                     HBond_Acceptors:                   6
##########                        HBond_Donors:                   1
##########                         Heavy_Atoms:                  25
##########                          Grid_Score:          -25.745043
##########                     Grid_vdw_energy:          -25.501526
##########                      Grid_es_energy:           -0.243516
##########           Internal_energy_repulsive:           31.377253

@<TRIPOS>MOLECULE
ZINC000956479608
 52 55 1 0 0
SMALL
USER_CHARGES


@<TRIPOS>ATOM
      1 C1         -3.3127    3.1596   52.0975 C.3     1  ZINC000956479608   -0.0900
      2 C2         -4.5433    2.3376   51.8126 C.2     1  ZINC000956479608   -0.1100
      3 C3         -5.7466    2.3665   52.4632 C.2     1  ZINC000956479608   -0.1000
      4 C4         -6.1159    3.2220   53.6067 C.2     1  ZINC000956479608    0.6100
      5 O5         -5.3666    4.1079   53.9702 O.2     1  ZINC000956479608   -0.5000
      6 N6         -7.2839    3.0217   54.2486 N.am    1  ZINC000956479608   -0.7100
      7 C7         -7.6499    3.8701   55.3854 C.3     1  ZINC000956479608    0.1800
      8 C8         -7.7065    5.3309   54.9338 C.3     1  ZINC000956479608   -0.1700
      9 C9         -9.0217    3.4475   55.9163 C.3     1  ZINC000956479608   -0.1500
     10 C10        -8.9709    1.9749   56.3355 C.3     1  ZINC000956479608    0.1100
     11 N11        -7.8713    1.7934   57.2928 N.am    1  ZINC000956479608   -0.6100
     12 C12        -8.0924    1.2191   58.4919 C.2     1  ZINC000956479608    0.5500
     13 O13        -7.1765    1.0763   59.2740 O.2     1  ZINC000956479608   -0.5400
     14 C14        -9.4777    0.7546   58.8609 C.3     1  ZINC000956479608   -0.1900
     15 H15       -10.2068    1.5448   59.0401 H       1  ZINC000956479608    0.1200
     16 C16        -9.9797   -0.5361   58.2270 C.3     1  ZINC000956479608   -0.1100
     17 H17        -9.2833   -1.0397   57.5565 H       1  ZINC000956479608    0.1000
     18 C18       -11.4435   -0.6679   57.8364 C.3     1  ZINC000956479608   -0.0900
     19 C19       -12.3472   -0.2498   58.9963 C.3     1  ZINC000956479608   -0.1200
     20 C20       -11.9678   -1.0729   60.2327 C.3     1  ZINC000956479608   -0.1200
     21 C21       -10.6475   -0.5380   60.7877 C.3     1  ZINC000956479608   -0.0900
     22 C22        -9.5972   -0.5262   59.7012 C.3     1  ZINC000956479608   -0.1100
     23 H23        -8.6637   -1.0318   59.9481 H       1  ZINC000956479608    0.1100
     24 C24        -6.5258    2.2493   56.9179 C.3     1  ZINC000956479608    0.1000
     25 C25        -6.6039    3.7188   56.4922 C.3     1  ZINC000956479608   -0.1400
     26 O26        -6.5256    1.4565   51.8484 O.3     1  ZINC000956479608    0.1200
     27 N27        -5.9398    0.9133   50.9412 N.2     1  ZINC000956479608   -0.3400
     28 C28        -4.7255    1.3617   50.8076 C.2     1  ZINC000956479608   -0.0100
     29 H29        -3.3520    4.0841   51.5213 H       1  ZINC000956479608    0.0800
     30 H30        -3.2716    3.3958   53.1608 H       1  ZINC000956479608    0.0900
     31 H31        -2.4246    2.5937   51.8163 H       1  ZINC000956479608    0.0800
     32 H32        -7.8823    2.3158   53.9579 H       1  ZINC000956479608    0.4100
     33 H33        -8.4511    5.4388   54.1451 H       1  ZINC000956479608    0.0800
     34 H34        -7.9788    5.9624   55.7795 H       1  ZINC000956479608    0.0700
     35 H35        -6.7298    5.6322   54.5550 H       1  ZINC000956479608    0.0600
     36 H36        -9.2836    4.0622   56.7775 H       1  ZINC000956479608    0.0800
     37 H37        -9.7702    3.5777   55.1347 H       1  ZINC000956479608    0.1000
     38 H38        -9.9141    1.6960   56.8052 H       1  ZINC000956479608    0.0900
     39 H39        -8.7986    1.3511   55.4584 H       1  ZINC000956479608    0.0600
     40 H40       -11.6449   -0.0302   56.9757 H       1  ZINC000956479608    0.0700
     41 H41       -11.6534   -1.7044   57.5724 H       1  ZINC000956479608    0.0700
     42 H42       -12.2070    0.8106   59.2057 H       1  ZINC000956479608    0.0600
     43 H43       -13.3884   -0.4395   58.7358 H       1  ZINC000956479608    0.0700
     44 H44       -12.7475   -0.9787   60.9885 H       1  ZINC000956479608    0.0700
     45 H45       -11.8500   -2.1199   59.9533 H       1  ZINC000956479608    0.0700
     46 H46       -10.7950    0.4778   61.1544 H       1  ZINC000956479608    0.0700
     47 H47       -10.3180   -1.1726   61.6104 H       1  ZINC000956479608    0.0700
     48 H48        -5.8557    2.1514   57.7720 H       1  ZINC000956479608    0.0900
     49 H49        -6.1541    1.6478   56.0883 H       1  ZINC000956479608    0.0700
     50 H50        -5.6316    4.0421   56.1205 H       1  ZINC000956479608    0.0900
     51 H51        -6.8886    4.3309   57.3481 H       1  ZINC000956479608    0.0900
     52 H52        -3.9969    1.0440   50.0766 H       1  ZINC000956479608    0.2000
@<TRIPOS>BOND
     1     1     2    1
     2     1    29    1
     3     1    30    1
     4     1    31    1
     5     2    28    1
     6     2     3    2
     7     3     4    1
     8     3    26    1
     9     4     5    2
    10     4     6   am
    11     6     7    1
    12     6    32    1
    13     7    25    1
    14     7     8    1
    15     7     9    1
    16     8    33    1
    17     8    34    1
    18     8    35    1
    19     9    10    1
    20     9    36    1
    21     9    37    1
    22    10    11    1
    23    10    38    1
    24    10    39    1
    25    11    12   am
    26    11    24    1
    27    12    13    2
    28    12    14    1
    29    14    15    1
    30    14    22    1
    31    14    16    1
    32    16    17    1
    33    16    22    1
    34    16    18    1
    35    18    19    1
    36    18    40    1
    37    18    41    1
    38    19    20    1
    39    19    42    1
    40    19    43    1
    41    20    21    1
    42    20    44    1
    43    20    45    1
    44    21    22    1
    45    21    46    1
    46    21    47    1
    47    22    23    1
    48    24    25    1
    49    24    48    1
    50    24    49    1
    51    25    50    1
    52    25    51    1
    53    26    27    1
    54    27    28    2
    55    28    52    1
@<TRIPOS>SUBSTRUCTURE
     1 ZINC000956479608        1 TEMP              0 ****  ****    0 ROOT


##########                                Name:    ZINC000055987960
##########                DOCK_Rotatable_Bonds:                   6
##########                         Heavy_Atoms:                  28
##########                    Molecular_Weight:             404.868
##########                DOCK_Rotatable_Bonds:                   6
##########                       Formal_Charge:          0.00999941
##########                     HBond_Acceptors:                   7
##########                        HBond_Donors:                   1
##########                         Heavy_Atoms:                  28
##########                          Grid_Score:          -25.718630
##########                     Grid_vdw_energy:          -24.199202
##########                      Grid_es_energy:           -1.519428
##########           Internal_energy_repulsive:           12.767962

@<TRIPOS>MOLECULE
ZINC000055987960
 50 52 1 0 0
SMALL
USER_CHARGES


@<TRIPOS>ATOM
      1 C1        -12.1111   -1.4538   59.6198 C.3     1  ZINC000055987960   -0.1800
      2 C2        -12.0294   -0.4278   60.7518 C.3     1  ZINC000055987960    0.0700
      3 H3        -12.5272   -0.8225   61.6376 H       1  ZINC000055987960    0.1200
      4 C4        -10.5592   -0.1395   61.0764 C.3     1  ZINC000055987960    0.0800
      5 N5         -9.9597    0.5615   59.9300 N.am    1  ZINC000055987960   -0.6100
      6 C6         -8.8019    0.1376   59.3857 C.2     1  ZINC000055987960    0.5700
      7 O7         -8.2369   -0.8376   59.8419 O.2     1  ZINC000055987960   -0.5300
      8 C8         -8.2197    0.8572   58.2360 C.ar    1  ZINC000055987960   -0.1500
      9 C9         -8.6901    0.6093   56.9437 C.ar    1  ZINC000055987960   -0.0700
     10 C10        -8.1451    1.2825   55.8735 C.ar    1  ZINC000055987960   -0.1500
     11 C11        -7.1272    2.2088   56.0776 C.ar    1  ZINC000055987960    0.1700
     12 N12        -6.5778    2.8892   54.9916 N.am    1  ZINC000055987960   -0.6700
     13 C13        -7.1229    4.0504   54.5782 C.2     1  ZINC000055987960    0.5200
     14 O14        -8.0912    4.5036   55.1508 O.2     1  ZINC000055987960   -0.5000
     15 C15        -6.5292    4.7859   53.4044 C.3     1  ZINC000055987960   -0.1100
     16 C16        -5.7670    3.8169   52.5378 C.ar    1  ZINC000055987960   -0.1000
     17 C17        -4.4377    3.5428   52.8091 C.ar    1  ZINC000055987960    0.1300
     18 F18        -3.8227    4.1440   53.8511 F       1  ZINC000055987960   -0.1300
     19 C19        -3.7386    2.6518   52.0121 C.ar    1  ZINC000055987960   -0.1500
     20 C20        -4.3681    2.0368   50.9468 C.ar    1  ZINC000055987960   -0.0700
     21 C21        -5.6959    2.3105   50.6758 C.ar    1  ZINC000055987960   -0.1200
     22 C22        -6.3972    3.1963   51.4740 C.ar    1  ZINC000055987960    0.0000
     23 Cl23       -8.0646    3.5388   51.1331 Cl      1  ZINC000055987960   -0.0500
     24 C24        -6.6566    2.4579   57.3630 C.ar    1  ZINC000055987960   -0.1200
     25 C25        -7.2007    1.7920   58.4381 C.ar    1  ZINC000055987960   -0.0500
     26 C26       -10.6618    1.7389   59.3949 C.3     1  ZINC000055987960    0.0600
     27 C27       -12.1270    1.3591   59.1522 C.3     1  ZINC000055987960    0.0700
     28 H28       -12.1855    0.6346   58.3400 H       1  ZINC000055987960    0.0700
     29 C29       -12.9244    2.6105   58.7794 C.3     1  ZINC000055987960   -0.1500
     30 O30       -12.6691    0.7842   60.3449 O.3     1  ZINC000055987960   -0.3700
     31 H31       -11.6132   -1.0585   58.7344 H       1  ZINC000055987960    0.0600
     32 H32       -11.6217   -2.3770   59.9302 H       1  ZINC000055987960    0.0700
     33 H33       -13.1567   -1.6569   59.3884 H       1  ZINC000055987960    0.0700
     34 H34       -10.4958    0.4887   61.9650 H       1  ZINC000055987960    0.0800
     35 H35       -10.0311   -1.0769   61.2506 H       1  ZINC000055987960    0.1000
     36 H36        -9.4800   -0.1098   56.7845 H       1  ZINC000055987960    0.1400
     37 H37        -8.5079    1.0911   54.8744 H       1  ZINC000055987960    0.1300
     38 H38        -5.8034    2.5267   54.5336 H       1  ZINC000055987960    0.4200
     39 H39        -7.3280    5.2443   52.8213 H       1  ZINC000055987960    0.1200
     40 H40        -5.8525    5.5604   53.7655 H       1  ZINC000055987960    0.1200
     41 H41        -2.7012    2.4378   52.2231 H       1  ZINC000055987960    0.1500
     42 H42        -3.8224    1.3423   50.3253 H       1  ZINC000055987960    0.1500
     43 H43        -6.1868    1.8296   49.8427 H       1  ZINC000055987960    0.1400
     44 H44        -5.8660    3.1772   57.5180 H       1  ZINC000055987960    0.1500
     45 H45        -6.8350    1.9859   59.4356 H       1  ZINC000055987960    0.1300
     46 H46       -10.6087    2.5562   60.1142 H       1  ZINC000055987960    0.0800
     47 H47       -10.2016    2.0454   58.4557 H       1  ZINC000055987960    0.1100
     48 H48       -12.5083    3.0496   57.8727 H       1  ZINC000055987960    0.0700
     49 H49       -13.9660    2.3397   58.6070 H       1  ZINC000055987960    0.0700
     50 H50       -12.8668    3.3338   59.5928 H       1  ZINC000055987960    0.0700
@<TRIPOS>BOND
     1     1     2    1
     2     1    31    1
     3     1    32    1
     4     1    33    1
     5     2     3    1
     6     2    30    1
     7     2     4    1
     8     4     5    1
     9     4    34    1
    10     4    35    1
    11     5     6   am
    12     5    26    1
    13     6     7    2
    14     6     8    1
    15     8    25   ar
    16     8     9   ar
    17     9    10   ar
    18     9    36    1
    19    10    11   ar
    20    10    37    1
    21    11    12    1
    22    11    24   ar
    23    12    13   am
    24    12    38    1
    25    13    14    2
    26    13    15    1
    27    15    16    1
    28    15    39    1
    29    15    40    1
    30    16    22   ar
    31    16    17   ar
    32    17    18    1
    33    17    19   ar
    34    19    20   ar
    35    19    41    1
    36    20    21   ar
    37    20    42    1
    38    21    22   ar
    39    21    43    1
    40    22    23    1
    41    24    25   ar
    42    24    44    1
    43    25    45    1
    44    26    27    1
    45    26    46    1
    46    26    47    1
    47    27    28    1
    48    27    29    1
    49    27    30    1
    50    29    48    1
    51    29    49    1
    52    29    50    1
@<TRIPOS>SUBSTRUCTURE
     1 ZINC000055987960        1 TEMP              0 ****  ****    0 ROOT


##########                                Name:    ZINC001220212140
##########                DOCK_Rotatable_Bonds:                   6
##########                         Heavy_Atoms:                  28
##########                    Molecular_Weight:             379.459
##########                DOCK_Rotatable_Bonds:                   6
##########                       Formal_Charge:         -0.00999925
##########                     HBond_Acceptors:                   6
##########                        HBond_Donors:                   1
##########                         Heavy_Atoms:                  28
##########                          Grid_Score:          -25.670210
##########                     Grid_vdw_energy:          -25.176529
##########                      Grid_es_energy:           -0.493680
##########           Internal_energy_repulsive:           18.613464

@<TRIPOS>MOLECULE
ZINC001220212140
 53 56 1 0 0
SMALL
USER_CHARGES


@<TRIPOS>ATOM
      1 C1        -11.2892   -1.8841   58.4986 C.3     1  ZINC001220212140   -0.1700
      2 C2        -11.7860   -0.4818   58.1414 C.3     1  ZINC001220212140    0.0800
      3 H3        -12.5122   -0.1325   58.8755 H       1  ZINC001220212140    0.1200
      4 C4        -10.6017    0.5070   58.0288 C.3     1  ZINC001220212140   -0.1100
      5 C5        -10.2805    0.4443   56.5479 C.ar    1  ZINC001220212140   -0.1500
      6 C6         -9.1846    0.8549   55.8231 C.ar    1  ZINC001220212140   -0.0700
      7 C7         -9.1521    0.6631   54.4472 C.ar    1  ZINC001220212140    0.1400
      8 N8         -8.0390    1.0785   53.7039 N.am    1  ZINC001220212140   -0.6800
      9 C9         -7.9037    2.3746   53.3601 C.2     1  ZINC001220212140    0.7200
     10 O10        -8.7474    3.1836   53.6948 O.2     1  ZINC001220212140   -0.5700
     11 N11        -6.8332    2.7741   52.6453 N.am    1  ZINC001220212140   -0.6300
     12 C12        -6.5621    4.1504   52.2048 C.3     1  ZINC001220212140    0.0900
     13 C13        -5.2183    4.1325   51.4464 C.3     1  ZINC001220212140   -0.1100
     14 C14        -4.5296    2.8527   51.9897 C.3     1  ZINC001220212140   -0.1300
     15 H15        -4.0364    3.0487   52.9418 H       1  ZINC001220212140    0.1200
     16 C16        -3.5549    2.2954   50.9845 C.2     1  ZINC001220212140    0.5300
     17 O17        -3.9164    1.4496   50.1940 O.2     1  ZINC001220212140   -0.5100
     18 N18        -2.2817    2.7370   50.9639 N.am    1  ZINC001220212140   -0.5700
     19 C19        -1.8452    3.7586   51.9188 C.3     1  ZINC001220212140    0.0700
     20 C20        -1.3768    2.2195   50.0305 C.ar    1  ZINC001220212140    0.1400
     21 C21        -0.0727    1.9318   50.4113 C.ar    1  ZINC001220212140   -0.1100
     22 C22         0.8182    1.4211   49.4876 C.ar    1  ZINC001220212140   -0.1100
     23 C23         0.4126    1.1966   48.1847 C.ar    1  ZINC001220212140   -0.1200
     24 C24        -0.8851    1.4824   47.8024 C.ar    1  ZINC001220212140   -0.1100
     25 C25        -1.7826    1.9871   48.7228 C.ar    1  ZINC001220212140   -0.1200
     26 C26        -5.7369    1.9047   52.1810 C.3     1  ZINC001220212140    0.1400
     27 C27       -10.2282    0.0573   53.8133 C.ar    1  ZINC001220212140   -0.1100
     28 C28       -11.3258   -0.3493   54.5427 C.ar    1  ZINC001220212140   -0.1200
     29 C29       -11.3650   -0.1563   55.9211 C.ar    1  ZINC001220212140    0.0900
     30 O30       -12.3491   -0.4625   56.8188 O.3     1  ZINC001220212140   -0.3000
     31 H31       -10.5747   -2.2190   57.7467 H       1  ZINC001220212140    0.0600
     32 H32       -10.8049   -1.8603   59.4749 H       1  ZINC001220212140    0.0800
     33 H33       -12.1341   -2.5722   58.5289 H       1  ZINC001220212140    0.0700
     34 H34       -10.9050    1.5128   58.3194 H       1  ZINC001220212140    0.0900
     35 H35        -9.7543    0.1696   58.6257 H       1  ZINC001220212140    0.0900
     36 H36        -8.3509    1.3252   56.3232 H       1  ZINC001220212140    0.1400
     37 H37        -7.3658    0.4331   53.4368 H       1  ZINC001220212140    0.4100
     38 H38        -7.3576    4.4909   51.5417 H       1  ZINC001220212140    0.0700
     39 H39        -6.4907    4.8093   53.0702 H       1  ZINC001220212140    0.0700
     40 H40        -5.3830    4.0551   50.3716 H       1  ZINC001220212140    0.1000
     41 H41        -4.6292    5.0181   51.6845 H       1  ZINC001220212140    0.0900
     42 H42        -1.4709    3.2760   52.8216 H       1  ZINC001220212140    0.0700
     43 H43        -1.0522    4.3583   51.4721 H       1  ZINC001220212140    0.0800
     44 H44        -2.6877    4.4018   52.1733 H       1  ZINC001220212140    0.0800
     45 H45         0.2448    2.1076   51.4285 H       1  ZINC001220212140    0.1200
     46 H46         1.8325    1.1971   49.7831 H       1  ZINC001220212140    0.1300
     47 H47         1.1112    0.7975   47.4642 H       1  ZINC001220212140    0.1300
     48 H48        -1.1984    1.3066   46.7839 H       1  ZINC001220212140    0.1300
     49 H49        -2.7959    2.2101   48.4236 H       1  ZINC001220212140    0.1200
     50 H50        -5.5081    1.1450   52.9284 H       1  ZINC001220212140    0.0900
     51 H51        -6.0058    1.4371   51.2338 H       1  ZINC001220212140    0.0700
     52 H52       -10.2060   -0.0958   52.7445 H       1  ZINC001220212140    0.1300
     53 H53       -12.1592   -0.8199   54.0421 H       1  ZINC001220212140    0.1300
@<TRIPOS>BOND
     1     1     2    1
     2     1    31    1
     3     1    32    1
     4     1    33    1
     5     2     3    1
     6     2    30    1
     7     2     4    1
     8     4     5    1
     9     4    34    1
    10     4    35    1
    11     5    29   ar
    12     5     6   ar
    13     6     7   ar
    14     6    36    1
    15     7     8    1
    16     7    27   ar
    17     8     9   am
    18     8    37    1
    19     9    10    2
    20     9    11   am
    21    11    26    1
    22    11    12    1
    23    12    13    1
    24    12    38    1
    25    12    39    1
    26    13    14    1
    27    13    40    1
    28    13    41    1
    29    14    15    1
    30    14    16    1
    31    14    26    1
    32    16    17    2
    33    16    18   am
    34    18    19    1
    35    18    20    1
    36    19    42    1
    37    19    43    1
    38    19    44    1
    39    20    25   ar
    40    20    21   ar
    41    21    22   ar
    42    21    45    1
    43    22    23   ar
    44    22    46    1
    45    23    24   ar
    46    23    47    1
    47    24    25   ar
    48    24    48    1
    49    25    49    1
    50    26    50    1
    51    26    51    1
    52    27    28   ar
    53    27    52    1
    54    28    29   ar
    55    28    53    1
    56    29    30    1
@<TRIPOS>SUBSTRUCTURE
     1 ZINC001220212140        1 TEMP              0 ****  ****    0 ROOT


##########                                Name:    ZINC000437443367
##########                DOCK_Rotatable_Bonds:                   8
##########                         Heavy_Atoms:                  24
##########                    Molecular_Weight:             334.434
##########                DOCK_Rotatable_Bonds:                   8
##########                       Formal_Charge:          -0.0500003
##########                     HBond_Acceptors:                   5
##########                        HBond_Donors:                   1
##########                         Heavy_Atoms:                  24
##########                          Grid_Score:          -25.669622
##########                     Grid_vdw_energy:          -25.588970
##########                      Grid_es_energy:           -0.080652
##########           Internal_energy_repulsive:           40.672585

@<TRIPOS>MOLECULE
ZINC000437443367
 51 52 1 0 0
SMALL
USER_CHARGES


@<TRIPOS>ATOM
      1 C1          2.1604    1.8513   50.9780 C.3     1  ZINC000437443367   -0.1200
      2 C2          0.8024    1.9000   50.3265 C.ar    1  ZINC000437443367   -0.1000
      3 C3         -0.2616    2.4757   50.9917 C.ar    1  ZINC000437443367   -0.1200
      4 C4         -1.5134    2.5202   50.3905 C.ar    1  ZINC000437443367    0.1400
      5 N5         -2.5923    3.1031   51.0620 N.am    1  ZINC000437443367   -0.6400
      6 C6         -3.7112    2.3869   51.2890 C.2     1  ZINC000437443367    0.5000
      7 O7         -3.7823    1.2358   50.9106 O.2     1  ZINC000437443367   -0.4800
      8 C8         -4.8637    3.0097   52.0064 C.2     1  ZINC000437443367    0.5100
      9 O9         -5.9660    3.0094   51.4989 O.2     1  ZINC000437443367   -0.5200
     10 N10        -4.6793    3.5719   53.2174 N.am    1  ZINC000437443367   -0.5700
     11 C11        -5.8097    4.1828   53.9211 C.3     1  ZINC000437443367    0.0900
     12 C12        -6.6350    3.0909   54.6049 C.3     1  ZINC000437443367   -0.1200
     13 C13        -7.8155    3.7288   55.3399 C.3     1  ZINC000437443367   -0.0900
     14 C14        -8.6417    2.6369   56.0226 C.3     1  ZINC000437443367   -0.1400
     15 C15        -7.2918    4.7064   56.3940 C.3     1  ZINC000437443367   -0.1500
     16 C16        -3.3485    3.5720   53.8298 C.3     1  ZINC000437443367    0.1300
     17 C17        -2.6035    4.8753   53.4744 C.3     1  ZINC000437443367   -0.1300
     18 C18        -2.8644    5.8044   54.6860 C.3     1  ZINC000437443367   -0.1300
     19 C19        -2.8006    4.8272   55.8860 C.3     1  ZINC000437443367   -0.1200
     20 C20        -3.4739    3.5415   55.3632 C.3     1  ZINC000437443367   -0.1400
     21 C21        -1.6913    1.9851   49.1211 C.ar    1  ZINC000437443367   -0.1100
     22 C22        -0.6240    1.4102   48.4595 C.ar    1  ZINC000437443367   -0.1300
     23 C23         0.6240    1.3720   49.0583 C.ar    1  ZINC000437443367    0.0800
     24 F24         1.6666    0.8092   48.4093 F       1  ZINC000437443367   -0.1400
     25 H25         2.7183    2.7523   50.7228 H       1  ZINC000437443367    0.0800
     26 H26         2.0424    1.7915   52.0599 H       1  ZINC000437443367    0.0700
     27 H27         2.7028    0.9753   50.6226 H       1  ZINC000437443367    0.0700
     28 H28        -0.1212    2.8908   51.9787 H       1  ZINC000437443367    0.1400
     29 H29        -2.5354    4.0229   51.3646 H       1  ZINC000437443367    0.4200
     30 H30        -5.4367    4.8798   54.6714 H       1  ZINC000437443367    0.0900
     31 H31        -6.4358    4.7180   53.2072 H       1  ZINC000437443367    0.1000
     32 H32        -7.0080    2.3938   53.8546 H       1  ZINC000437443367    0.0700
     33 H33        -6.0089    2.5556   55.3188 H       1  ZINC000437443367    0.0600
     34 H34        -8.4411    4.2649   54.6261 H       1  ZINC000437443367    0.0600
     35 H35        -8.0161    2.1009   56.7363 H       1  ZINC000437443367    0.0600
     36 H36        -9.4827    3.0915   56.5462 H       1  ZINC000437443367    0.0400
     37 H37        -9.0147    1.9406   55.2716 H       1  ZINC000437443367    0.0600
     38 H38        -6.7033    5.4843   55.9077 H       1  ZINC000437443367    0.0500
     39 H39        -8.1329    5.1610   56.9176 H       1  ZINC000437443367    0.0500
     40 H40        -6.6664    4.1703   57.1077 H       1  ZINC000437443367    0.0500
     41 H41        -2.7787    2.7093   53.4844 H       1  ZINC000437443367    0.1000
     42 H42        -1.5360    4.6860   53.3619 H       1  ZINC000437443367    0.0800
     43 H43        -3.0125    5.3123   52.5636 H       1  ZINC000437443367    0.0700
     44 H44        -2.0867    6.5640   54.7648 H       1  ZINC000437443367    0.0700
     45 H45        -3.8498    6.2648   54.6146 H       1  ZINC000437443367    0.0700
     46 H46        -1.7650    4.6300   56.1629 H       1  ZINC000437443367    0.0700
     47 H47        -3.3536    5.2291   56.7351 H       1  ZINC000437443367    0.0700
     48 H48        -4.5249    3.5265   55.6516 H       1  ZINC000437443367    0.0800
     49 H49        -2.9642    2.6644   55.7620 H       1  ZINC000437443367    0.0700
     50 H50        -2.6634    2.0183   48.6521 H       1  ZINC000437443367    0.1600
     51 H51        -0.7618    0.9941   47.4724 H       1  ZINC000437443367    0.1400
@<TRIPOS>BOND
     1     1     2    1
     2     1    25    1
     3     1    26    1
     4     1    27    1
     5     2    23   ar
     6     2     3   ar
     7     3     4   ar
     8     3    28    1
     9     4     5    1
    10     4    21   ar
    11     5     6   am
    12     5    29    1
    13     6     7    2
    14     6     8    1
    15     8     9    2
    16     8    10   am
    17    10    11    1
    18    10    16    1
    19    11    12    1
    20    11    30    1
    21    11    31    1
    22    12    13    1
    23    12    32    1
    24    12    33    1
    25    13    14    1
    26    13    15    1
    27    13    34    1
    28    14    35    1
    29    14    36    1
    30    14    37    1
    31    15    38    1
    32    15    39    1
    33    15    40    1
    34    16    20    1
    35    16    17    1
    36    16    41    1
    37    17    18    1
    38    17    42    1
    39    17    43    1
    40    18    19    1
    41    18    44    1
    42    18    45    1
    43    19    20    1
    44    19    46    1
    45    19    47    1
    46    20    48    1
    47    20    49    1
    48    21    22   ar
    49    21    50    1
    50    22    23   ar
    51    22    51    1
    52    23    24    1
@<TRIPOS>SUBSTRUCTURE
     1 ZINC000437443367        1 TEMP              0 ****  ****    0 ROOT


##########                                Name:    ZINC001098311495
##########                DOCK_Rotatable_Bonds:                   8
##########                         Heavy_Atoms:                  24
##########                    Molecular_Weight:             328.454
##########                DOCK_Rotatable_Bonds:                   8
##########                       Formal_Charge:          0.00999987
##########                     HBond_Acceptors:                   4
##########                        HBond_Donors:                   1
##########                         Heavy_Atoms:                  24
##########                          Grid_Score:          -25.651693
##########                     Grid_vdw_energy:          -24.758316
##########                      Grid_es_energy:           -0.893377
##########           Internal_energy_repulsive:           20.071625

@<TRIPOS>MOLECULE
ZINC001098311495
 52 54 1 0 0
SMALL
USER_CHARGES


@<TRIPOS>ATOM
      1 C1        -15.9055   -0.6793   54.7963 C.3     1  ZINC001098311495   -0.1500
      2 C2        -16.0578   -1.5522   56.0436 C.3     1  ZINC001098311495    0.0500
      3 O3        -15.1029   -1.1485   57.0271 O.3     1  ZINC001098311495   -0.2800
      4 C4        -15.1035   -1.8277   58.2013 C.ar    1  ZINC001098311495    0.1900
      5 C5        -16.0908   -2.7655   58.4630 C.ar    1  ZINC001098311495   -0.2200
      6 C6        -16.0938   -3.4515   59.6616 C.ar    1  ZINC001098311495   -0.0500
      7 C7        -15.1098   -3.2143   60.6071 C.ar    1  ZINC001098311495   -0.1700
      8 C8        -14.1173   -2.2901   60.3611 C.ar    1  ZINC001098311495   -0.0500
      9 C9        -14.1025   -1.5890   59.1532 C.ar    1  ZINC001098311495   -0.1800
     10 C10       -13.0430   -0.5983   58.8833 C.2     1  ZINC001098311495    0.5600
     11 O11       -13.3285    0.4814   58.4025 O.2     1  ZINC001098311495   -0.5200
     12 N12       -11.7588   -0.8901   59.1697 N.am    1  ZINC001098311495   -0.7200
     13 C13       -10.7070    0.0942   58.9033 C.3     1  ZINC001098311495    0.1600
     14 H14       -10.9421    0.6731   58.0102 H       1  ZINC001098311495    0.1000
     15 C15        -9.3320   -0.6029   58.7589 C.3     1  ZINC001098311495   -0.1200
     16 C16        -8.4896    0.0092   59.9186 C.3     1  ZINC001098311495    0.0500
     17 H17        -7.6254   -0.5763   60.2323 H       1  ZINC001098311495    0.1100
     18 C18        -8.1888    1.4777   59.4921 C.3     1  ZINC001098311495   -0.1500
     19 C19        -9.5579    2.1853   59.6402 C.3     1  ZINC001098311495   -0.1500
     20 C20       -10.5118    1.0343   60.1309 C.3     1  ZINC001098311495    0.0400
     21 H21       -11.4212    1.3612   60.6351 H       1  ZINC001098311495    0.1200
     22 N22        -9.5525    0.2248   60.9641 N.3     1  ZINC001098311495   -0.4900
     23 C23        -9.0333    1.0164   62.0873 C.3     1  ZINC001098311495    0.0600
     24 C24        -9.2663    0.2720   63.3767 C.2     1  ZINC001098311495   -0.1600
     25 C25        -8.4903    0.4915   64.4092 C.2     1  ZINC001098311495   -0.1200
     26 C26        -8.7234   -0.2529   65.6986 C.3     1  ZINC001098311495   -0.1200
     27 C27        -7.3648    1.4883   64.3073 C.3     1  ZINC001098311495   -0.1200
     28 H28       -16.0751    0.3645   55.0604 H       1  ZINC001098311495    0.0700
     29 H29       -14.8990   -0.7933   54.3937 H       1  ZINC001098311495    0.0700
     30 H30       -16.6339   -0.9872   54.0462 H       1  ZINC001098311495    0.0800
     31 H31       -15.8882   -2.5960   55.7795 H       1  ZINC001098311495    0.0600
     32 H32       -17.0643   -1.4382   56.4462 H       1  ZINC001098311495    0.0600
     33 H33       -16.8612   -2.9563   57.7305 H       1  ZINC001098311495    0.1300
     34 H34       -16.8677   -4.1774   59.8627 H       1  ZINC001098311495    0.1300
     35 H35       -15.1202   -3.7562   61.5412 H       1  ZINC001098311495    0.1300
     36 H36       -13.3523   -2.1082   61.1013 H       1  ZINC001098311495    0.1300
     37 H37       -11.5309   -1.7520   59.5522 H       1  ZINC001098311495    0.4000
     38 H38        -8.8828   -0.3693   57.7936 H       1  ZINC001098311495    0.0800
     39 H39        -9.4330   -1.6807   58.8855 H       1  ZINC001098311495    0.0800
     40 H40        -7.4508    1.9268   60.1568 H       1  ZINC001098311495    0.0700
     41 H41        -7.8476    1.5147   58.4575 H       1  ZINC001098311495    0.0800
     42 H42        -9.4986    2.9852   60.3784 H       1  ZINC001098311495    0.0700
     43 H43        -9.8955    2.5731   58.6791 H       1  ZINC001098311495    0.0800
     44 H44        -9.5482    1.9765   62.1239 H       1  ZINC001098311495    0.0500
     45 H45        -7.9645    1.1823   61.9515 H       1  ZINC001098311495    0.0800
     46 H46       -10.0730   -0.4423   63.4497 H       1  ZINC001098311495    0.1100
     47 H47        -9.4115    0.3136   66.3259 H       1  ZINC001098311495    0.0700
     48 H48        -7.7753   -0.3794   66.2214 H       1  ZINC001098311495    0.0600
     49 H49        -9.1516   -1.2313   65.4810 H       1  ZINC001098311495    0.0600
     50 H50        -6.4865    1.0025   63.8824 H       1  ZINC001098311495    0.0700
     51 H51        -7.6687    2.3153   63.6656 H       1  ZINC001098311495    0.0600
     52 H52        -7.1249    1.8682   65.3005 H       1  ZINC001098311495    0.0600
@<TRIPOS>BOND
     1     1     2    1
     2     1    28    1
     3     1    29    1
     4     1    30    1
     5     2     3    1
     6     2    31    1
     7     2    32    1
     8     3     4    1
     9     4     9   ar
    10     4     5   ar
    11     5     6   ar
    12     5    33    1
    13     6     7   ar
    14     6    34    1
    15     7     8   ar
    16     7    35    1
    17     8     9   ar
    18     8    36    1
    19     9    10    1
    20    10    11    2
    21    10    12   am
    22    12    13    1
    23    12    37    1
    24    13    14    1
    25    13    20    1
    26    13    15    1
    27    15    16    1
    28    15    38    1
    29    15    39    1
    30    16    17    1
    31    16    22    1
    32    16    18    1
    33    18    19    1
    34    18    40    1
    35    18    41    1
    36    19    20    1
    37    19    42    1
    38    19    43    1
    39    20    21    1
    40    20    22    1
    41    22    23    1
    42    23    24    1
    43    23    44    1
    44    23    45    1
    45    24    25    2
    46    24    46    1
    47    25    26    1
    48    25    27    1
    49    26    47    1
    50    26    48    1
    51    26    49    1
    52    27    50    1
    53    27    51    1
    54    27    52    1
@<TRIPOS>SUBSTRUCTURE
     1 ZINC001098311495        1 TEMP              0 ****  ****    0 ROOT


##########                                Name:    ZINC001064463188
##########                DOCK_Rotatable_Bonds:                   6
##########                         Heavy_Atoms:                  25
##########                    Molecular_Weight:             342.441
##########                DOCK_Rotatable_Bonds:                   6
##########                       Formal_Charge:          -0.0100004
##########                     HBond_Acceptors:                   6
##########                        HBond_Donors:                   0
##########                         Heavy_Atoms:                  25
##########                          Grid_Score:          -25.576834
##########                     Grid_vdw_energy:          -25.056696
##########                      Grid_es_energy:           -0.520137
##########           Internal_energy_repulsive:           17.167221

@<TRIPOS>MOLECULE
ZINC001064463188
 51 54 1 0 0
SMALL
USER_CHARGES


@<TRIPOS>ATOM
      1 C1         -9.2260    2.9452   53.0743 C.3     1  ZINC001064463188    0.0400
      2 O2         -8.4274    1.8766   53.5865 O.3     1  ZINC001064463188   -0.3000
      3 C3         -7.8516    2.0652   54.7987 C.ar    1  ZINC001064463188    0.3900
      4 C4         -6.6362    2.7392   54.9066 C.ar    1  ZINC001064463188   -0.2800
      5 C5         -6.0852    2.9088   56.1630 C.ar    1  ZINC001064463188    0.2000
      6 N6         -6.7231    2.4294   57.2199 N.ar    1  ZINC001064463188   -0.5800
      7 C7         -7.8773    1.7928   57.0867 C.ar    1  ZINC001064463188    0.5300
      8 N8         -8.5143    1.3067   58.2151 N.3     1  ZINC001064463188   -0.4500
      9 C9         -7.6271    0.4358   58.9828 C.3     1  ZINC001064463188    0.0700
     10 C10        -8.3831   -0.8171   59.4407 C.3     1  ZINC001064463188   -0.1200
     11 C11        -9.4627   -0.4913   60.4552 C.3     1  ZINC001064463188    0.1400
     12 H12       -10.0153   -1.3949   60.7125 H       1  ZINC001064463188    0.0900
     13 C13        -8.8763    0.1391   61.7199 C.3     1  ZINC001064463188   -0.1300
     14 C14        -8.8767    1.6496   61.4255 C.3     1  ZINC001064463188   -0.1300
     15 C15        -9.8243    1.8269   60.2342 C.3     1  ZINC001064463188    0.1200
     16 H16       -10.6399    2.4956   60.5096 H       1  ZINC001064463188    0.0900
     17 C17        -9.0634    2.4173   59.0370 C.3     1  ZINC001064463188    0.0600
     18 N18       -10.3812    0.5071   59.8332 N.am    1  ZINC001064463188   -0.6000
     19 C19       -11.4715    0.2754   59.0755 C.2     1  ZINC001064463188    0.5800
     20 O20       -12.1190    1.2084   58.6404 O.2     1  ZINC001064463188   -0.5400
     21 C21       -11.8783   -1.1059   58.7749 C.2     1  ZINC001064463188   -0.2200
     22 C22       -11.7981   -1.5667   57.5299 C.2     1  ZINC001064463188    0.0000
     23 C23       -12.2149   -2.9818   57.2220 C.3     1  ZINC001064463188   -0.1300
     24 C24       -11.2904   -0.6738   56.4272 C.3     1  ZINC001064463188   -0.1200
     25 C25       -10.3278   -1.2872   55.4083 C.3     1  ZINC001064463188   -0.1900
     26 C26       -11.7683   -0.9676   55.0038 C.3     1  ZINC001064463188   -0.1600
     27 N27        -8.4398    1.6154   55.9005 N.ar    1  ZINC001064463188   -0.5900
     28 H28        -8.6123    3.8402   52.9710 H       1  ZINC001064463188    0.0600
     29 H29        -9.6265    2.6649   52.1001 H       1  ZINC001064463188    0.1000
     30 H30       -10.0482    3.1459   53.7612 H       1  ZINC001064463188    0.0600
     31 H31        -6.1361    3.1201   54.0284 H       1  ZINC001064463188    0.1500
     32 H32        -5.1445    3.4261   56.2813 H       1  ZINC001064463188    0.1800
     33 H33        -6.7827    0.1409   58.3599 H       1  ZINC001064463188    0.0800
     34 H34        -7.2586    0.9747   59.8557 H       1  ZINC001064463188    0.0600
     35 H35        -8.8432   -1.2902   58.5732 H       1  ZINC001064463188    0.0800
     36 H36        -7.6749   -1.5144   59.8884 H       1  ZINC001064463188    0.0800
     37 H37        -9.5050   -0.0814   62.5826 H       1  ZINC001064463188    0.0800
     38 H38        -7.8596   -0.2165   61.8871 H       1  ZINC001064463188    0.0900
     39 H39        -9.2468    2.2029   62.2887 H       1  ZINC001064463188    0.0800
     40 H40        -7.8729    1.9839   61.1632 H       1  ZINC001064463188    0.0800
     41 H41        -8.2359    3.0291   59.3959 H       1  ZINC001064463188    0.0700
     42 H42        -9.7400    3.0288   58.4399 H       1  ZINC001064463188    0.0900
     43 H43       -12.2422   -1.7457   59.5652 H       1  ZINC001064463188    0.1200
     44 H44       -13.2745   -3.0011   56.9667 H       1  ZINC001064463188    0.0800
     45 H45       -11.6318   -3.3575   56.3812 H       1  ZINC001064463188    0.0800
     46 H46       -12.0400   -3.6103   58.0952 H       1  ZINC001064463188    0.0700
     47 H47       -11.1361    0.3700   56.7009 H       1  ZINC001064463188    0.1400
     48 H48        -9.5398   -0.6469   55.0117 H       1  ZINC001064463188    0.1000
     49 H49       -10.0617   -2.3364   55.5356 H       1  ZINC001064463188    0.1000
     50 H50       -12.4499   -1.8068   54.8649 H       1  ZINC001064463188    0.0900
     51 H51       -11.9281   -0.1173   54.3409 H       1  ZINC001064463188    0.1000
@<TRIPOS>BOND
     1     1     2    1
     2     1    28    1
     3     1    29    1
     4     1    30    1
     5     2     3    1
     6     3    27   ar
     7     3     4   ar
     8     4     5   ar
     9     4    31    1
    10     5     6   ar
    11     5    32    1
    12     6     7   ar
    13     7     8    1
    14     7    27   ar
    15     8    17    1
    16     8     9    1
    17     9    10    1
    18     9    33    1
    19     9    34    1
    20    10    11    1
    21    10    35    1
    22    10    36    1
    23    11    12    1
    24    11    18    1
    25    11    13    1
    26    13    14    1
    27    13    37    1
    28    13    38    1
    29    14    15    1
    30    14    39    1
    31    14    40    1
    32    15    16    1
    33    15    17    1
    34    15    18    1
    35    17    41    1
    36    17    42    1
    37    18    19   am
    38    19    20    2
    39    19    21    1
    40    21    22    2
    41    21    43    1
    42    22    23    1
    43    22    24    1
    44    23    44    1
    45    23    45    1
    46    23    46    1
    47    24    26    1
    48    24    25    1
    49    24    47    1
    50    25    26    1
    51    25    48    1
    52    25    49    1
    53    26    50    1
    54    26    51    1
@<TRIPOS>SUBSTRUCTURE
     1 ZINC001064463188        1 TEMP              0 ****  ****    0 ROOT


##########                                Name:    ZINC000504860563
##########                DOCK_Rotatable_Bonds:                   6
##########                         Heavy_Atoms:                  25
##########                    Molecular_Weight:             370.786
##########                DOCK_Rotatable_Bonds:                   6
##########                       Formal_Charge:                0.01
##########                     HBond_Acceptors:                   9
##########                        HBond_Donors:                   0
##########                         Heavy_Atoms:                  25
##########                          Grid_Score:          -25.558510
##########                     Grid_vdw_energy:          -24.819553
##########                      Grid_es_energy:           -0.738957
##########           Internal_energy_repulsive:           17.043922

@<TRIPOS>MOLECULE
ZINC000504860563
 42 44 1 0 0
SMALL
USER_CHARGES


@<TRIPOS>ATOM
      1 O1        -13.3945   -4.2932   56.6882 O.2     1  ZINC000504860563   -0.5100
      2 C2        -13.5700   -3.0907   56.7115 C.2     1  ZINC000504860563    0.5700
      3 C3        -14.9292   -2.5384   56.5290 C.ar    1  ZINC000504860563    0.0500
      4 N4        -15.2038   -1.8017   55.4583 N.ar    1  ZINC000504860563   -0.4100
      5 C5        -16.3987   -1.2928   55.2584 C.ar    1  ZINC000504860563    0.0600
      6 C6        -17.4281   -1.5058   56.1636 C.ar    1  ZINC000504860563   -0.1000
      7 C7        -17.1925   -2.2664   57.2949 C.ar    1  ZINC000504860563   -0.1700
      8 C8        -15.9194   -2.7998   57.4824 C.ar    1  ZINC000504860563    0.1400
      9 O9        -15.6414   -3.5523   58.5763 O.3     1  ZINC000504860563   -0.2600
     10 C10       -16.2056   -3.1252   59.8178 C.3     1  ZINC000504860563   -0.0100
     11 C11       -15.4389   -1.9059   60.3339 C.3     1  ZINC000504860563    0.2800
     12 F12       -16.1082   -0.7382   59.9517 F       1  ZINC000504860563   -0.1900
     13 F13       -15.3587   -1.9618   61.7295 F       1  ZINC000504860563   -0.1900
     14 N14       -12.5264   -2.2609   56.9091 N.am    1  ZINC000504860563   -0.6000
     15 C15       -12.7246   -0.8058   56.9518 C.3     1  ZINC000504860563    0.0800
     16 C16       -12.1208   -0.2638   58.2512 C.3     1  ZINC000504860563   -0.1500
     17 C17       -10.6579   -0.7021   58.3509 C.3     1  ZINC000504860563    0.1600
     18 N18       -10.0678   -0.1579   59.5763 N.pl3   1  ZINC000504860563   -0.3600
     19 C19       -10.2249   -0.6544   60.8223 C.2     1  ZINC000504860563    0.0700
     20 C20        -9.5208    0.1309   61.6709 C.2     1  ZINC000504860563   -0.1900
     21 Cl21       -9.3938   -0.0789   63.3895 Cl      1  ZINC000504860563   -0.0400
     22 C22        -8.9128    1.1414   60.9176 C.2     1  ZINC000504860563    0.0600
     23 N23        -9.2359    0.9661   59.6618 N.2     1  ZINC000504860563   -0.2800
     24 C24       -10.5826   -2.2303   58.3838 C.3     1  ZINC000504860563   -0.1400
     25 C25       -11.1699   -2.7948   57.0920 C.3     1  ZINC000504860563    0.1200
     26 H26       -16.5822   -0.6988   54.3754 H       1  ZINC000504860563    0.1700
     27 H27       -18.4052   -1.0811   55.9867 H       1  ZINC000504860563    0.1500
     28 H28       -17.9783   -2.4459   58.0137 H       1  ZINC000504860563    0.1500
     29 H29       -17.2524   -2.8599   59.6691 H       1  ZINC000504860563    0.1000
     30 H30       -16.1356   -3.9333   60.5459 H       1  ZINC000504860563    0.1000
     31 H31       -14.4340   -1.9033   59.9119 H       1  ZINC000504860563    0.1300
     32 H32       -12.2286   -0.3443   56.0980 H       1  ZINC000504860563    0.0700
     33 H33       -13.7908   -0.5812   56.9228 H       1  ZINC000504860563    0.1600
     34 H34       -12.1752    0.8249   58.2513 H       1  ZINC000504860563    0.0900
     35 H35       -12.6770   -0.6565   59.1024 H       1  ZINC000504860563    0.0700
     36 H36       -10.1077   -0.3301   57.4866 H       1  ZINC000504860563    0.1100
     37 H37       -10.8082   -1.5220   61.0933 H       1  ZINC000504860563    0.1800
     38 H38        -8.2827    1.9283   61.3054 H       1  ZINC000504860563    0.1900
     39 H39        -9.5422   -2.5412   58.4784 H       1  ZINC000504860563    0.0900
     40 H40       -11.1533   -2.6045   59.2337 H       1  ZINC000504860563    0.0800
     41 H41       -11.2089   -3.8824   57.1530 H       1  ZINC000504860563    0.1000
     42 H42       -10.5490   -2.4963   56.2472 H       1  ZINC000504860563    0.0800
@<TRIPOS>BOND
     1     1     2    2
     2     2     3    1
     3     2    14   am
     4     3     8   ar
     5     3     4   ar
     6     4     5   ar
     7     5     6   ar
     8     5    26    1
     9     6     7   ar
    10     6    27    1
    11     7     8   ar
    12     7    28    1
    13     8     9    1
    14     9    10    1
    15    10    11    1
    16    10    29    1
    17    10    30    1
    18    11    12    1
    19    11    13    1
    20    11    31    1
    21    14    25    1
    22    14    15    1
    23    15    16    1
    24    15    32    1
    25    15    33    1
    26    16    17    1
    27    16    34    1
    28    16    35    1
    29    17    18    1
    30    17    24    1
    31    17    36    1
    32    18    23    1
    33    18    19    1
    34    19    20    2
    35    19    37    1
    36    20    21    1
    37    20    22    1
    38    22    23    2
    39    22    38    1
    40    24    25    1
    41    24    39    1
    42    24    40    1
    43    25    41    1
    44    25    42    1
@<TRIPOS>SUBSTRUCTURE
     1 ZINC000504860563        1 TEMP              0 ****  ****    0 ROOT


##########                                Name:    ZINC000493443319
##########                DOCK_Rotatable_Bonds:                   6
##########                         Heavy_Atoms:                  25
##########                    Molecular_Weight:             348.399
##########                DOCK_Rotatable_Bonds:                   6
##########                       Formal_Charge:        -3.27826e-07
##########                     HBond_Acceptors:                   7
##########                        HBond_Donors:                   0
##########                         Heavy_Atoms:                  25
##########                          Grid_Score:          -25.535128
##########                     Grid_vdw_energy:          -24.828951
##########                      Grid_es_energy:           -0.706177
##########           Internal_energy_repulsive:           47.643848

@<TRIPOS>MOLECULE
ZINC000493443319
 49 51 1 0 0
SMALL
USER_CHARGES


@<TRIPOS>ATOM
      1 C1        -11.6529   -1.4177   55.8859 C.3     1  <0>        -0.1500
      2 C2        -10.2138   -1.9150   56.0355 C.3     1  <0>         0.0500
      3 O3        -10.1274   -2.7921   57.1602 O.3     1  <0>        -0.3200
      4 C4        -10.3630   -2.2504   58.3851 C.ar    1  <0>         0.1000
      5 C5        -11.5608   -2.5041   59.0368 C.ar    1  <0>        -0.1700
      6 C6        -11.8002   -1.9539   60.2810 C.ar    1  <0>        -0.1100
      7 C7        -10.8425   -1.1481   60.8788 C.ar    1  <0>         0.0800
      8 O8        -11.0783   -0.6061   62.1035 O.3     1  <0>        -0.3000
      9 C9        -11.4579    0.7710   62.1413 C.3     1  <0>         0.1000
     10 C10       -12.2416    1.1191   60.8741 C.3     1  <0>        -0.1800
     11 C11       -12.3348    1.0248   63.3691 C.3     1  <0>        -0.1500
     12 C12       -10.2225    1.6306   62.2199 C.2     1  <0>         0.5100
     13 O13       -10.0972    2.5814   61.4775 O.2     1  <0>        -0.5200
     14 N14        -9.2572    1.3428   63.1153 N.am    1  <0>        -0.6000
     15 C15        -8.0525    2.1783   63.1944 C.3     1  <0>         0.0700
     16 C16        -7.9017    2.7068   64.6299 C.3     1  <0>         0.1300
     17 N17        -8.1212    1.5742   65.5401 N.am    1  <0>        -0.6300
     18 C18        -7.3310    1.1351   66.5211 C.2     1  <0>         0.6500
     19 O19        -6.3536    1.7430   66.9106 O.2     1  <0>        -0.5200
     20 O20        -7.7173   -0.0400   67.0359 O.3     1  <0>        -0.3200
     21 C21        -8.9696   -0.4550   66.4142 C.3     1  <0>         0.0500
     22 C22        -9.3121    0.7010   65.4606 C.3     1  <0>         0.0800
     23 H23       -10.2158    1.2241   65.7735 H       1  <0>         0.1100
     24 C24        -9.4095    0.1939   64.0213 C.3     1  <0>         0.1000
     25 C25        -9.6442   -0.8956   60.2277 C.ar    1  <0>        -0.1800
     26 C26        -9.4033   -1.4489   58.9852 C.ar    1  <0>        -0.1100
     27 H27       -11.7189   -0.7486   55.0280 H       1  <0>         0.0800
     28 H28       -12.3176   -2.2684   55.7352 H       1  <0>         0.0700
     29 H29       -11.9477   -0.8817   56.7881 H       1  <0>         0.0700
     30 H30        -9.9190   -2.4509   55.1332 H       1  <0>         0.0600
     31 H31        -9.5493   -1.0642   56.1862 H       1  <0>         0.0600
     32 H32       -12.3065   -3.1315   58.5713 H       1  <0>         0.1400
     33 H33       -12.7331   -2.1508   60.7882 H       1  <0>         0.1400
     34 H34       -13.1972    0.5948   60.8825 H       1  <0>         0.0800
     35 H35       -12.4173    2.1942   60.8394 H       1  <0>         0.0900
     36 H36       -11.6685    0.8160   59.9978 H       1  <0>         0.0800
     37 H37       -11.8099    0.6936   64.2651 H       1  <0>         0.0800
     38 H38       -12.5508    2.0903   63.4474 H       1  <0>         0.0900
     39 H39       -13.2684    0.4712   63.2695 H       1  <0>         0.0900
     40 H40        -7.1782    1.5830   62.9313 H       1  <0>         0.0800
     41 H41        -8.1448    3.0173   62.5048 H       1  <0>         0.1300
     42 H42        -6.8985    3.1085   64.7734 H       1  <0>         0.1100
     43 H43        -8.6431    3.4831   64.8188 H       1  <0>         0.0800
     44 H44        -8.8310   -1.3816   65.8572 H       1  <0>         0.1100
     45 H45        -9.7491   -0.5734   67.1668 H       1  <0>         0.1100
     46 H46       -10.3803   -0.2750   63.8611 H       1  <0>         0.1100
     47 H47        -8.6153   -0.5279   63.8307 H       1  <0>         0.0800
     48 H48        -8.8983   -0.2684   60.6933 H       1  <0>         0.1600
     49 H49        -8.4701   -1.2523   58.4782 H       1  <0>         0.1300
@<TRIPOS>BOND
     1     1     2    1
     2     1    27    1
     3     1    28    1
     4     1    29    1
     5     2     3    1
     6     2    30    1
     7     2    31    1
     8     3     4    1
     9     4    26   ar
    10     4     5   ar
    11     5     6   ar
    12     5    32    1
    13     6     7   ar
    14     6    33    1
    15     7     8    1
    16     7    25   ar
    17     8     9    1
    18     9    10    1
    19     9    11    1
    20     9    12    1
    21    10    34    1
    22    10    35    1
    23    10    36    1
    24    11    37    1
    25    11    38    1
    26    11    39    1
    27    12    13    2
    28    12    14   am
    29    14    24    1
    30    14    15    1
    31    15    16    1
    32    15    40    1
    33    15    41    1
    34    16    17    1
    35    16    42    1
    36    16    43    1
    37    17    22    1
    38    17    18   am
    39    18    19    2
    40    18    20    1
    41    20    21    1
    42    21    22    1
    43    21    44    1
    44    21    45    1
    45    22    23    1
    46    22    24    1
    47    24    46    1
    48    24    47    1
    49    25    26   ar
    50    25    48    1
    51    26    49    1
@<TRIPOS>SUBSTRUCTURE
     1 <0>         1 TEMP              0 ****  ****    0 ROOT


##########                                Name:    ZINC000883773972
##########                DOCK_Rotatable_Bonds:                   4
##########                         Heavy_Atoms:                  23
##########                    Molecular_Weight:             343.447
##########                DOCK_Rotatable_Bonds:                   4
##########                       Formal_Charge:                0.01
##########                     HBond_Acceptors:                   8
##########                        HBond_Donors:                   1
##########                         Heavy_Atoms:                  23
##########                          Grid_Score:          -25.519001
##########                     Grid_vdw_energy:          -25.252539
##########                      Grid_es_energy:           -0.266462
##########           Internal_energy_repulsive:            5.241406

@<TRIPOS>MOLECULE
ZINC000883773972
 48 50 1 0 0
SMALL
USER_CHARGES


@<TRIPOS>ATOM
      1 C1          5.4065   -0.3401   47.2905 C.3     1  ZINC000883773972   -0.1700
      2 C2          4.9439    0.0242   48.6778 C.2     1  ZINC000883773972    0.5300
      3 O3          5.7070   -0.0694   49.6157 O.2     1  ZINC000883773972   -0.5400
      4 N4          3.6819    0.4540   48.8761 N.am    1  ZINC000883773972   -0.6200
      5 C5          3.0792    0.8513   50.1591 C.3     1  ZINC000883773972    0.1100
      6 C6          2.0422    1.9389   49.8326 C.3     1  ZINC000883773972   -0.1100
      7 H7          2.4081    2.9356   50.0792 H       1  ZINC000883773972    0.1000
      8 C8          0.7230    1.6183   50.5550 C.3     1  ZINC000883773972    0.1300
      9 N9         -0.3428    1.7421   49.5471 N.am    1  ZINC000883773972   -0.6400
     10 C10        -1.6157    2.1286   49.7641 C.2     1  ZINC000883773972    0.7300
     11 O11        -2.3990    2.1898   48.8361 O.2     1  ZINC000883773972   -0.5800
     12 N12        -2.0202    2.4474   51.0096 N.am    1  ZINC000883773972   -0.7400
     13 C13        -3.4032    2.8691   51.2450 C.3     1  ZINC000883773972    0.1800
     14 H14        -3.7307    3.5092   50.4257 H       1  ZINC000883773972    0.1100
     15 C15        -4.3027    1.6387   51.3171 C.3     1  ZINC000883773972   -0.1500
     16 C16        -5.7732    2.0461   51.3104 C.3     1  ZINC000883773972   -0.1000
     17 C17        -6.1328    2.7289   52.6320 C.3     1  ZINC000883773972   -0.5600
     18 H18        -5.8926    2.0652   53.4626 H       1  ZINC000883773972    0.1400
     19 C19        -7.6281    3.0524   52.6509 C.3     1  ZINC000883773972   -0.1400
     20 S20        -5.1742    4.2646   52.7842 S.o2    1  ZINC000883773972    2.4200
     21 O21        -5.4992    5.1137   51.6921 O.2     1  ZINC000883773972   -0.9200
     22 O22        -5.3094    4.7554   54.1109 O.2     1  ZINC000883773972   -0.9300
     23 C23        -3.4798    3.6482   52.5600 C.3     1  ZINC000883773972   -0.6300
     24 C24         0.2531    1.3613   48.2559 C.3     1  ZINC000883773972    0.1100
     25 C25         1.7525    1.7864   48.3191 C.3     1  ZINC000883773972   -0.1100
     26 H26         1.9394    2.6999   47.7546 H       1  ZINC000883773972    0.1000
     27 C27         2.6391    0.6240   47.8511 C.3     1  ZINC000883773972    0.1100
     28 H28         6.4470   -0.6629   47.3276 H       1  ZINC000883773972    0.0900
     29 H29         4.7886   -1.1498   46.9023 H       1  ZINC000883773972    0.0900
     30 H30         5.3187    0.5288   46.6384 H       1  ZINC000883773972    0.0900
     31 H31         2.5899   -0.0048   50.6236 H       1  ZINC000883773972    0.0800
     32 H32         3.8446    1.2517   50.8240 H       1  ZINC000883773972    0.0900
     33 H33         0.7494    0.6023   50.9487 H       1  ZINC000883773972    0.0700
     34 H34         0.5571    2.3295   51.3642 H       1  ZINC000883773972    0.0900
     35 H35        -1.3956    2.3974   51.7500 H       1  ZINC000883773972    0.4000
     36 H36        -4.1038    0.9975   50.4585 H       1  ZINC000883773972    0.0900
     37 H37        -4.0865    1.0888   52.2330 H       1  ZINC000883773972    0.0800
     38 H38        -5.9537    2.7359   50.4860 H       1  ZINC000883773972    0.0900
     39 H39        -6.3937    1.1594   51.1808 H       1  ZINC000883773972    0.0900
     40 H40        -8.2006    2.1302   52.5517 H       1  ZINC000883773972    0.0800
     41 H41        -7.8827    3.5387   53.5926 H       1  ZINC000883773972    0.0700
     42 H42        -7.8661    3.7189   51.8218 H       1  ZINC000883773972    0.0800
     43 H43        -3.2172    2.9929   53.3905 H       1  ZINC000883773972    0.1400
     44 H44        -2.7874    4.4893   52.5242 H       1  ZINC000883773972    0.1400
     45 H45         0.1688    0.2848   48.1079 H       1  ZINC000883773972    0.0800
     46 H46        -0.2442    1.8913   47.4435 H       1  ZINC000883773972    0.0800
     47 H47         3.0768    0.8549   46.8799 H       1  ZINC000883773972    0.0900
     48 H48         2.0525   -0.2926   47.7892 H       1  ZINC000883773972    0.0700
@<TRIPOS>BOND
     1     1     2    1
     2     1    28    1
     3     1    29    1
     4     1    30    1
     5     2     3    2
     6     2     4   am
     7     4    27    1
     8     4     5    1
     9     5     6    1
    10     5    31    1
    11     5    32    1
    12     6     7    1
    13     6    25    1
    14     6     8    1
    15     8     9    1
    16     8    33    1
    17     8    34    1
    18     9    10   am
    19     9    24    1
    20    10    11    2
    21    10    12   am
    22    12    13    1
    23    12    35    1
    24    13    14    1
    25    13    23    1
    26    13    15    1
    27    15    16    1
    28    15    36    1
    29    15    37    1
    30    16    17    1
    31    16    38    1
    32    16    39    1
    33    17    18    1
    34    17    19    1
    35    17    20    1
    36    19    40    1
    37    19    41    1
    38    19    42    1
    39    20    21    2
    40    20    22    2
    41    20    23    1
    42    23    43    1
    43    23    44    1
    44    24    25    1
    45    24    45    1
    46    24    46    1
    47    25    26    1
    48    25    27    1
    49    27    47    1
    50    27    48    1
@<TRIPOS>SUBSTRUCTURE
     1 ZINC000883773972        1 TEMP              0 ****  ****    0 ROOT


##########                                Name:    ZINC000012087388
##########                DOCK_Rotatable_Bonds:                   5
##########                         Heavy_Atoms:                  29
##########                    Molecular_Weight:              418.52
##########                DOCK_Rotatable_Bonds:                   5
##########                       Formal_Charge:          -0.0499999
##########                     HBond_Acceptors:                  10
##########                        HBond_Donors:                   1
##########                         Heavy_Atoms:                  29
##########                          Grid_Score:          -25.357222
##########                     Grid_vdw_energy:          -23.769703
##########                      Grid_es_energy:           -1.587519
##########           Internal_energy_repulsive:           35.095066

@<TRIPOS>MOLECULE
ZINC000012087388
 55 58 1 0 0
SMALL
USER_CHARGES


@<TRIPOS>ATOM
      1 C1         -9.7155   -0.5711   54.5813 C.3     1  <0>        -0.6600
      2 S2        -11.1472    0.5426   54.5611 S.o2    1  <0>         2.5100
      3 O3        -10.8572    1.7403   55.2686 O.2     1  <0>        -0.9400
      4 O4        -11.7318    0.5797   53.2665 O.2     1  <0>        -0.9300
      5 C5        -12.3508   -0.2706   55.5583 C.ar    1  <0>        -0.8400
      6 C6        -13.5324   -0.7360   55.0035 C.ar    1  <0>         0.3000
      7 N7        -14.4150   -1.3426   55.7800 N.ar    1  <0>        -0.5800
      8 C8        -14.1792   -1.5070   57.0732 C.ar    1  <0>         0.6000
      9 N9        -15.1245   -2.1463   57.8564 N.pl3   1  <0>        -0.5700
     10 C10       -14.7406   -2.7816   59.1244 C.3     1  <0>         0.1200
     11 C11       -15.6368   -2.2360   60.2406 C.3     1  <0>        -0.1400
     12 C12       -17.1042   -2.4376   59.8556 C.3     1  <0>        -0.1200
     13 C13       -17.4073   -1.6634   58.5708 C.3     1  <0>        -0.1400
     14 C14       -16.5322   -2.1973   57.4386 C.3     1  <0>         0.1200
     15 N15       -13.0597   -1.0744   57.6347 N.ar    1  <0>        -0.5700
     16 C16       -12.1339   -0.4640   56.9138 C.ar    1  <0>         0.3200
     17 C17       -10.8635    0.0249   57.5602 C.3     1  <0>        -0.0700
     18 C18       -11.1987    1.1063   58.5900 C.3     1  <0>        -0.1300
     19 C19        -9.9024    1.6252   59.2201 C.3     1  <0>         0.0900
     20 N20        -9.1519    0.4855   59.7644 N.am    1  <0>        -0.6100
     21 C21        -8.7442    0.4823   61.0491 C.2     1  <0>         0.5900
     22 O22        -8.1237   -0.4673   61.4878 O.2     1  <0>        -0.5100
     23 C23        -9.0501    1.6277   61.9209 C.2     1  <0>        -0.0400
     24 C24        -9.8318    1.6169   63.0630 C.2     1  <0>        -0.1500
     25 C25        -9.8200    2.9326   63.5319 C.2     1  <0>         0.0000
     26 N26        -9.0841    3.6429   62.7156 N.2     1  <0>        -0.2700
     27 N27        -8.6146    2.9135   61.7685 N.pl3   1  <0>        -0.3900
     28 C28        -8.8544   -0.6509   58.8818 C.3     1  <0>         0.1100
     29 C29       -10.1624   -1.1444   58.2556 C.3     1  <0>        -0.1200
     30 H30        -9.3720   -0.7028   55.6074 H       1  <0>         0.1400
     31 H31       -10.0013   -1.5379   54.1668 H       1  <0>         0.1300
     32 H32        -8.9126   -0.1418   53.9817 H       1  <0>         0.1400
     33 H33       -13.7304   -0.6046   53.9500 H       1  <0>         0.1900
     34 H34       -14.8704   -3.8610   59.0462 H       1  <0>         0.0700
     35 H35       -13.6986   -2.5520   59.3472 H       1  <0>         0.1000
     36 H36       -15.4276   -2.7686   61.1683 H       1  <0>         0.0800
     37 H37       -15.4396   -1.1728   60.3785 H       1  <0>         0.0700
     38 H38       -17.2947   -3.4986   59.6937 H       1  <0>         0.0700
     39 H39       -17.7439   -2.0725   60.6591 H       1  <0>         0.0700
     40 H40       -18.4582   -1.7884   58.3099 H       1  <0>         0.0800
     41 H41       -17.1935   -0.6056   58.7244 H       1  <0>         0.0700
     42 H42       -16.6729   -1.5846   56.5481 H       1  <0>         0.1000
     43 H43       -16.8057   -3.2298   57.2213 H       1  <0>         0.0700
     44 H44       -10.2051    0.4415   56.7979 H       1  <0>         0.1000
     45 H45       -11.7187    1.9283   58.0981 H       1  <0>         0.0800
     46 H46       -11.8369    0.6840   59.3663 H       1  <0>         0.0900
     47 H47        -9.3032    2.1284   58.4612 H       1  <0>         0.0800
     48 H48       -10.1402    2.3231   60.0228 H       1  <0>         0.0900
     49 H49       -10.3424    0.7710   63.4990 H       1  <0>         0.1700
     50 H50       -10.3283    3.2986   64.4117 H       1  <0>         0.1900
     51 H51        -8.0436    3.2287   61.0505 H       1  <0>         0.4400
     52 H52        -8.1697   -0.3333   58.0954 H       1  <0>         0.0800
     53 H53        -8.4007   -1.4548   59.4615 H       1  <0>         0.1000
     54 H54       -10.8103   -1.5454   59.0350 H       1  <0>         0.0800
     55 H55        -9.9449   -1.9242   57.5257 H       1  <0>         0.0900
@<TRIPOS>BOND
     1     1     2    1
     2     1    30    1
     3     1    31    1
     4     1    32    1
     5     2     3    2
     6     2     4    2
     7     2     5    1
     8     5    16   ar
     9     5     6   ar
    10     6     7   ar
    11     6    33    1
    12     7     8   ar
    13     8     9    1
    14     8    15   ar
    15     9    14    1
    16     9    10    1
    17    10    11    1
    18    10    34    1
    19    10    35    1
    20    11    12    1
    21    11    36    1
    22    11    37    1
    23    12    13    1
    24    12    38    1
    25    12    39    1
    26    13    14    1
    27    13    40    1
    28    13    41    1
    29    14    42    1
    30    14    43    1
    31    15    16   ar
    32    16    17    1
    33    17    29    1
    34    17    18    1
    35    17    44    1
    36    18    19    1
    37    18    45    1
    38    18    46    1
    39    19    20    1
    40    19    47    1
    41    19    48    1
    42    20    21   am
    43    20    28    1
    44    21    22    2
    45    21    23    1
    46    23    27    1
    47    23    24    2
    48    24    25    1
    49    24    49    1
    50    25    26    2
    51    25    50    1
    52    26    27    1
    53    27    51    1
    54    28    29    1
    55    28    52    1
    56    28    53    1
    57    29    54    1
    58    29    55    1
@<TRIPOS>SUBSTRUCTURE
     1 <0>         1 TEMP              0 ****  ****    0 ROOT


##########                                Name:    ZINC001045438664
##########                DOCK_Rotatable_Bonds:                   6
##########                         Heavy_Atoms:                  26
##########                    Molecular_Weight:             352.439
##########                DOCK_Rotatable_Bonds:                   6
##########                       Formal_Charge:          -0.0099999
##########                     HBond_Acceptors:                   7
##########                        HBond_Donors:                   2
##########                         Heavy_Atoms:                  26
##########                          Grid_Score:          -25.312519
##########                     Grid_vdw_energy:          -23.967758
##########                      Grid_es_energy:           -1.344761
##########           Internal_energy_repulsive:            7.410671

@<TRIPOS>MOLECULE
ZINC001045438664
 50 53 1 0 0
SMALL
USER_CHARGES


@<TRIPOS>ATOM
      1 C1         -1.7799    2.1541   57.4369 C.3     1  ZINC001045438664   -0.1100
      2 C2         -1.6308    2.9655   56.1757 C.ar    1  ZINC001045438664    0.2100
      3 C3         -0.3767    3.2900   55.6979 C.ar    1  ZINC001045438664   -0.3000
      4 C4         -0.2886    4.0433   54.5251 C.ar    1  ZINC001045438664    0.4500
      5 N5          0.9466    4.3941   54.0050 N.pl3   1  ZINC001045438664   -0.7100
      6 C6          2.1015    3.5149   54.2035 C.3     1  ZINC001045438664    0.1500
      7 H7          1.7633    2.5514   54.5849 H       1  ZINC001045438664    0.0900
      8 C8          3.0613    4.1530   55.2096 C.3     1  ZINC001045438664   -0.1300
      9 C9          4.2675    3.2348   55.4170 C.3     1  ZINC001045438664   -0.1200
     10 C10         4.9884    3.0308   54.0831 C.3     1  ZINC001045438664   -0.1200
     11 C11         4.0285    2.3925   53.0769 C.3     1  ZINC001045438664   -0.1300
     12 C12         2.8224    3.3108   52.8696 C.3     1  ZINC001045438664    0.1400
     13 H13         3.1606    4.2743   52.4883 H       1  ZINC001045438664    0.1000
     14 N14         1.9033    2.6998   51.9063 N.am    1  ZINC001045438664   -0.7200
     15 C15         2.0504    2.9406   50.5883 C.2     1  ZINC001045438664    0.5700
     16 O16         2.9448    3.6659   50.1992 O.2     1  ZINC001045438664   -0.5200
     17 C17         1.1241    2.3225   49.6161 C.ar    1  ZINC001045438664   -0.2500
     18 C18         1.5382    2.0339   48.3108 C.ar    1  ZINC001045438664    0.1900
     19 N19         0.6773    1.4808   47.4747 N.ar    1  ZINC001045438664   -0.5200
     20 C20        -0.5542    1.2018   47.8549 C.ar    1  ZINC001045438664    0.3200
     21 N21        -0.9859    1.4573   49.0744 N.ar    1  ZINC001045438664   -0.5200
     22 C22        -0.1902    2.0041   49.9767 C.ar    1  ZINC001045438664    0.2100
     23 N23        -1.4093    4.4178   53.9154 N.ar    1  ZINC001045438664   -0.5800
     24 C24        -2.5858    4.0855   54.4072 C.ar    1  ZINC001045438664    0.4000
     25 C25        -3.8329    4.5288   53.6865 C.3     1  ZINC001045438664   -0.1100
     26 C26        -3.7188    4.8146   52.1878 C.3     1  ZINC001045438664   -0.1500
     27 C27        -4.4459    3.5594   52.6739 C.3     1  ZINC001045438664   -0.1500
     28 N28        -2.7022    3.3715   55.5086 N.ar    1  ZINC001045438664   -0.5600
     29 H29        -1.7985    1.0934   57.1865 H       1  ZINC001045438664    0.0800
     30 H30        -0.9390    2.3560   58.1004 H       1  ZINC001045438664    0.0800
     31 H31        -2.7100    2.4260   57.9359 H       1  ZINC001045438664    0.0800
     32 H32         0.5139    2.9698   56.2182 H       1  ZINC001045438664    0.1400
     33 H33         1.0468    5.2220   53.5095 H       1  ZINC001045438664    0.4100
     34 H34         3.3996    5.1165   54.8284 H       1  ZINC001045438664    0.0700
     35 H35         2.5477    4.2984   56.1600 H       1  ZINC001045438664    0.0700
     36 H36         4.9513    3.6894   56.1337 H       1  ZINC001045438664    0.0700
     37 H37         3.9292    2.2713   55.7983 H       1  ZINC001045438664    0.0700
     38 H38         5.3266    3.9942   53.7017 H       1  ZINC001045438664    0.0700
     39 H39         5.8477    2.3765   54.2307 H       1  ZINC001045438664    0.0700
     40 H40         4.5422    2.2472   52.1266 H       1  ZINC001045438664    0.0800
     41 H41         3.6903    1.4291   53.4582 H       1  ZINC001045438664    0.0700
     42 H42         1.1889    2.1219   52.2169 H       1  ZINC001045438664    0.4000
     43 H43         2.5450    2.2598   47.9919 H       1  ZINC001045438664    0.1700
     44 H44        -1.2309    0.7499   47.1447 H       1  ZINC001045438664    0.2100
     45 H45        -0.5510    2.2103   50.9736 H       1  ZINC001045438664    0.1800
     46 H46        -4.5160    5.1488   54.2669 H       1  ZINC001045438664    0.1300
     47 H47        -4.3269    5.6231   51.7820 H       1  ZINC001045438664    0.1000
     48 H48        -2.7418    4.6821   51.7230 H       1  ZINC001045438664    0.1100
     49 H49        -3.9473    2.6010   52.5290 H       1  ZINC001045438664    0.1000
     50 H50        -5.5324    3.5420   52.5880 H       1  ZINC001045438664    0.1000
@<TRIPOS>BOND
     1     1     2    1
     2     1    29    1
     3     1    30    1
     4     1    31    1
     5     2    28   ar
     6     2     3   ar
     7     3     4   ar
     8     3    32    1
     9     4     5    1
    10     4    23   ar
    11     5     6    1
    12     5    33    1
    13     6     7    1
    14     6    12    1
    15     6     8    1
    16     8     9    1
    17     8    34    1
    18     8    35    1
    19     9    10    1
    20     9    36    1
    21     9    37    1
    22    10    11    1
    23    10    38    1
    24    10    39    1
    25    11    12    1
    26    11    40    1
    27    11    41    1
    28    12    13    1
    29    12    14    1
    30    14    15   am
    31    14    42    1
    32    15    16    2
    33    15    17    1
    34    17    22   ar
    35    17    18   ar
    36    18    19   ar
    37    18    43    1
    38    19    20   ar
    39    20    21   ar
    40    20    44    1
    41    21    22   ar
    42    22    45    1
    43    23    24   ar
    44    24    25    1
    45    24    28   ar
    46    25    27    1
    47    25    26    1
    48    25    46    1
    49    26    27    1
    50    26    47    1
    51    26    48    1
    52    27    49    1
    53    27    50    1
@<TRIPOS>SUBSTRUCTURE
     1 ZINC001045438664        1 TEMP              0 ****  ****    0 ROOT


##########                                Name:    ZINC001193456967
##########                DOCK_Rotatable_Bonds:                   3
##########                         Heavy_Atoms:                  27
##########                    Molecular_Weight:             392.451
##########                DOCK_Rotatable_Bonds:                   3
##########                       Formal_Charge:           0.0300002
##########                     HBond_Acceptors:                   8
##########                        HBond_Donors:                   0
##########                         Heavy_Atoms:                  27
##########                          Grid_Score:          -25.302778
##########                     Grid_vdw_energy:          -25.111115
##########                      Grid_es_energy:           -0.191663
##########           Internal_energy_repulsive:           37.563515

@<TRIPOS>MOLECULE
ZINC001193456967
 48 50 1 0 0
SMALL
USER_CHARGES


@<TRIPOS>ATOM
      1 C1         -4.2544    2.6159   51.9161 C.3     1  ZINC001193456967   -0.1400
      2 C2         -5.6412    2.5693   52.5038 C.ar    1  ZINC001193456967    0.0300
      3 C3         -6.0387    3.5304   53.4141 C.ar    1  ZINC001193456967   -0.1400
      4 C4         -7.3111    3.4876   53.9534 C.ar    1  ZINC001193456967    0.0300
      5 C5         -8.1857    2.4840   53.5818 C.ar    1  ZINC001193456967   -0.6900
      6 S6         -9.8070    2.4290   54.2694 S.o2    1  ZINC001193456967    2.7100
      7 O7         -9.8387    3.4056   55.3011 O.2     1  ZINC001193456967   -0.9300
      8 O8        -10.7088    2.4291   53.1712 O.2     1  ZINC001193456967   -0.9400
      9 N9         -9.9750    0.9585   55.0121 N.am    1  ZINC001193456967   -1.0000
     10 C10        -9.8651   -0.3551   54.3519 C.3     1  ZINC001193456967    0.1100
     11 C11       -10.6790   -1.3197   55.2502 C.3     1  ZINC001193456967   -0.1200
     12 C12       -10.3521   -0.7768   56.6664 C.3     1  ZINC001193456967   -0.0500
     13 H13        -9.4010   -1.1737   57.0215 H       1  ZINC001193456967    0.1000
     14 C14       -11.4598   -1.1078   57.6331 C.ar    1  ZINC001193456967   -0.0800
     15 C15       -11.1590   -1.4372   58.9417 C.ar    1  ZINC001193456967   -0.0800
     16 C16       -12.1740   -1.7410   59.8290 C.ar    1  ZINC001193456967   -0.1500
     17 C17       -13.4925   -1.7150   59.4072 C.ar    1  ZINC001193456967    0.1000
     18 F18       -14.4855   -2.0114   60.2739 F       1  ZINC001193456967   -0.1400
     19 C19       -13.7925   -1.3846   58.0965 C.ar    1  ZINC001193456967   -0.1500
     20 C20       -12.7762   -1.0765   57.2122 C.ar    1  ZINC001193456967   -0.0800
     21 C21       -10.2519    0.7465   56.4404 C.3     1  ZINC001193456967    0.1900
     22 C22        -9.1179    1.3250   57.2890 C.3     1  ZINC001193456967   -0.1800
     23 C23       -11.5768    1.4158   56.8113 C.3     1  ZINC001193456967   -0.1800
     24 C24        -7.7886    1.5233   52.6702 C.ar    1  ZINC001193456967    0.0400
     25 C25        -6.5179    1.5684   52.1282 C.ar    1  ZINC001193456967   -0.0600
     26 N26        -6.0927    0.5399   51.1523 N.pl3   1  ZINC001193456967    0.0200
     27 O27        -5.3829    0.8491   50.2120 O.2     1  ZINC001193456967   -0.1400
     28 O28        -6.4527   -0.6156   51.2895 O.2     1  ZINC001193456967   -0.1500
     29 H29        -4.2835    3.1323   50.9566 H       1  ZINC001193456967    0.1100
     30 H30        -3.5895    3.1492   52.5955 H       1  ZINC001193456967    0.0900
     31 H31        -3.8869    1.6001   51.7709 H       1  ZINC001193456967    0.0800
     32 H32        -5.3553    4.3147   53.7044 H       1  ZINC001193456967    0.1600
     33 H33        -7.6215    4.2382   54.6651 H       1  ZINC001193456967    0.1600
     34 H34       -10.2959   -0.3141   53.3515 H       1  ZINC001193456967    0.0900
     35 H35        -8.8226   -0.6698   54.3043 H       1  ZINC001193456967    0.0700
     36 H36       -11.7457   -1.2436   55.0393 H       1  ZINC001193456967    0.0900
     37 H37       -10.3319   -2.3466   55.1356 H       1  ZINC001193456967    0.0900
     38 H38       -10.1305   -1.4574   59.2705 H       1  ZINC001193456967    0.1400
     39 H39       -11.9388   -1.9989   60.8511 H       1  ZINC001193456967    0.1400
     40 H40       -14.8206   -1.3644   57.7663 H       1  ZINC001193456967    0.1400
     41 H41       -13.0099   -0.8184   56.1898 H       1  ZINC001193456967    0.1300
     42 H42        -8.1758    0.8565   57.0044 H       1  ZINC001193456967    0.0700
     43 H43        -9.0532    2.4006   57.1243 H       1  ZINC001193456967    0.0600
     44 H44        -9.3169    1.1302   58.3428 H       1  ZINC001193456967    0.0800
     45 H45       -11.8547    1.1336   57.8268 H       1  ZINC001193456967    0.0800
     46 H46       -11.4659    2.4985   56.7526 H       1  ZINC001193456967    0.0900
     47 H47       -12.3538    1.0920   56.1187 H       1  ZINC001193456967    0.0700
     48 H48        -8.4722    0.7393   52.3796 H       1  ZINC001193456967    0.1600
@<TRIPOS>BOND
     1     1     2    1
     2     1    29    1
     3     1    30    1
     4     1    31    1
     5     2    25   ar
     6     2     3   ar
     7     3     4   ar
     8     3    32    1
     9     4     5   ar
    10     4    33    1
    11     5     6    1
    12     5    24   ar
    13     6     7    2
    14     6     8    2
    15     6     9   am
    16     9    21    1
    17     9    10    1
    18    10    11    1
    19    10    34    1
    20    10    35    1
    21    11    12    1
    22    11    36    1
    23    11    37    1
    24    12    13    1
    25    12    14    1
    26    12    21    1
    27    14    20   ar
    28    14    15   ar
    29    15    16   ar
    30    15    38    1
    31    16    17   ar
    32    16    39    1
    33    17    18    1
    34    17    19   ar
    35    19    20   ar
    36    19    40    1
    37    20    41    1
    38    21    22    1
    39    21    23    1
    40    22    42    1
    41    22    43    1
    42    22    44    1
    43    23    45    1
    44    23    46    1
    45    23    47    1
    46    24    25   ar
    47    24    48    1
    48    25    26    1
    49    26    27    2
    50    26    28    2
@<TRIPOS>SUBSTRUCTURE
     1 ZINC001193456967        1 TEMP              0 ****  ****    0 ROOT


##########                                Name:    ZINC001173835973
##########                DOCK_Rotatable_Bonds:                   4
##########                         Heavy_Atoms:                  26
##########                    Molecular_Weight:             343.388
##########                DOCK_Rotatable_Bonds:                   4
##########                       Formal_Charge:           -0.010001
##########                     HBond_Acceptors:                   6
##########                        HBond_Donors:                   4
##########                         Heavy_Atoms:                  26
##########                          Grid_Score:          -25.257589
##########                     Grid_vdw_energy:          -26.609594
##########                      Grid_es_energy:            1.352005
##########           Internal_energy_repulsive:            7.456559

@<TRIPOS>MOLECULE
ZINC001173835973
 43 46 1 0 0
SMALL
USER_CHARGES


@<TRIPOS>ATOM
      1 C1        -12.3197    1.2223   53.6955 C.3     1  ZINC001173835973   -0.1700
      2 C2        -10.9712    0.9705   53.0714 C.2     1  ZINC001173835973    0.5100
      3 O3        -10.8817    0.2781   52.0797 O.2     1  ZINC001173835973   -0.5200
      4 N4         -9.8647    1.5149   53.6153 N.am    1  ZINC001173835973   -0.6800
      5 C5         -8.6127    1.2812   53.0359 C.ar    1  ZINC001173835973    0.1800
      6 C6         -8.1788   -0.0206   52.8196 C.ar    1  ZINC001173835973   -0.1900
      7 C7         -6.9424   -0.2527   52.2474 C.ar    1  ZINC001173835973   -0.0600
      8 C8         -6.1342    0.8081   51.8881 C.ar    1  ZINC001173835973   -0.1900
      9 C9         -6.5624    2.1134   52.1018 C.ar    1  ZINC001173835973    0.2200
     10 N10        -5.7449    3.1854   51.7385 N.pl3   1  ZINC001173835973   -0.6900
     11 C11        -4.4857    3.3375   52.3307 C.ar    1  ZINC001173835973    0.0400
     12 C12        -4.3897    3.8265   53.6002 C.ar    1  ZINC001173835973    0.2400
     13 N13        -5.5507    4.1724   54.3008 N.pl3   1  ZINC001173835973   -0.8600
     14 C14        -3.0859    3.9913   54.2336 C.ar    1  ZINC001173835973   -0.1100
     15 C15        -2.9806    4.4939   55.5408 C.ar    1  ZINC001173835973   -0.0600
     16 C16        -1.7320    4.6271   56.0852 C.ar    1  ZINC001173835973   -0.1700
     17 C17        -0.6128    4.2677   55.3437 C.ar    1  ZINC001173835973    0.1200
     18 N18        -0.7199    3.7984   54.1215 N.ar    1  ZINC001173835973   -0.4400
     19 C19        -1.9064    3.6458   53.5378 C.ar    1  ZINC001173835973    0.1900
     20 C20        -2.0097    3.1196   52.1716 C.ar    1  ZINC001173835973    0.1300
     21 N21        -0.9192    2.7836   51.4863 N.ar    1  ZINC001173835973   -0.4400
     22 C22        -0.9971    2.3114   50.2629 C.ar    1  ZINC001173835973    0.1000
     23 C23        -2.2202    2.1402   49.6262 C.ar    1  ZINC001173835973   -0.1500
     24 C24        -3.3786    2.4674   50.2781 C.ar    1  ZINC001173835973   -0.0700
     25 C25        -3.2865    2.9662   51.5874 C.ar    1  ZINC001173835973   -0.0400
     26 C26        -7.8059    2.3496   52.6716 C.ar    1  ZINC001173835973   -0.1900
     27 H27       -13.0880    0.7046   53.1213 H       1  ZINC001173835973    0.1000
     28 H28       -12.3205    0.8517   54.7206 H       1  ZINC001173835973    0.0900
     29 H29       -12.5257    2.2926   53.6958 H       1  ZINC001173835973    0.0900
     30 H30        -9.9363    2.0688   54.4084 H       1  ZINC001173835973    0.4100
     31 H31        -8.8083   -0.8524   53.0994 H       1  ZINC001173835973    0.1200
     32 H32        -6.6074   -1.2659   52.0811 H       1  ZINC001173835973    0.1200
     33 H33        -5.1686    0.6233   51.4412 H       1  ZINC001173835973    0.1200
     34 H34        -6.0494    3.8248   51.0756 H       1  ZINC001173835973    0.4000
     35 H35        -6.4221    3.9892   53.9160 H       1  ZINC001173835973    0.4100
     36 H36        -5.4840    4.5952   55.1712 H       1  ZINC001173835973    0.4000
     37 H37        -3.8619    4.7682   56.1016 H       1  ZINC001173835973    0.1400
     38 H38        -1.6166    5.0109   57.0882 H       1  ZINC001173835973    0.1400
     39 H39         0.3679    4.3771   55.7825 H       1  ZINC001173835973    0.1700
     40 H40        -0.0890    2.0505   49.7396 H       1  ZINC001173835973    0.1600
     41 H41        -2.2570    1.7504   48.6197 H       1  ZINC001173835973    0.1400
     42 H42        -4.3384    2.3416   49.7992 H       1  ZINC001173835973    0.1400
     43 H43        -8.1412    3.3625   52.8383 H       1  ZINC001173835973    0.1400
@<TRIPOS>BOND
     1     1     2    1
     2     1    27    1
     3     1    28    1
     4     1    29    1
     5     2     3    2
     6     2     4   am
     7     4     5    1
     8     4    30    1
     9     5    26   ar
    10     5     6   ar
    11     6     7   ar
    12     6    31    1
    13     7     8   ar
    14     7    32    1
    15     8     9   ar
    16     8    33    1
    17     9    10    1
    18     9    26   ar
    19    10    11    1
    20    10    34    1
    21    11    25   ar
    22    11    12   ar
    23    12    13    1
    24    12    14   ar
    25    13    35    1
    26    13    36    1
    27    14    19   ar
    28    14    15   ar
    29    15    16   ar
    30    15    37    1
    31    16    17   ar
    32    16    38    1
    33    17    18   ar
    34    17    39    1
    35    18    19   ar
    36    19    20   ar
    37    20    25   ar
    38    20    21   ar
    39    21    22   ar
    40    22    23   ar
    41    22    40    1
    42    23    24   ar
    43    23    41    1
    44    24    25   ar
    45    24    42    1
    46    26    43    1
@<TRIPOS>SUBSTRUCTURE
     1 ZINC001173835973        1 TEMP              0 ****  ****    0 ROOT


##########                                Name:    ZINC000098105561
##########                DOCK_Rotatable_Bonds:                   5
##########                         Heavy_Atoms:                  25
##########                    Molecular_Weight:             368.336
##########                DOCK_Rotatable_Bonds:                   5
##########                       Formal_Charge:         2.98023e-08
##########                     HBond_Acceptors:                   9
##########                        HBond_Donors:                   0
##########                         Heavy_Atoms:                  25
##########                          Grid_Score:          -25.251276
##########                     Grid_vdw_energy:          -23.807629
##########                      Grid_es_energy:           -1.443647
##########           Internal_energy_repulsive:           10.758908

@<TRIPOS>MOLECULE
ZINC000098105561
 36 38 1 0 0
SMALL
USER_CHARGES


@<TRIPOS>ATOM
      1 C1        -11.1795    4.2896   51.0441 C.3     1  ZINC000098105561   -0.0800
      2 C2         -9.7117    4.4055   50.7236 C.2     1  ZINC000098105561    0.0900
      3 C3         -9.2625    4.8873   49.5623 C.2     1  ZINC000098105561   -0.2700
      4 S4         -7.5016    4.8498   49.6000 S.3     1  ZINC000098105561    0.1600
      5 C5         -7.5392    4.1886   51.1762 C.2     1  ZINC000098105561    0.2500
      6 N6         -6.4193    3.8600   51.9273 N.am    1  ZINC000098105561   -0.5200
      7 C7         -6.2509    2.4954   52.4328 C.3     1  ZINC000098105561    0.0500
      8 C8         -5.4759    1.6641   51.4084 C.3     1  ZINC000098105561    0.4400
      9 F9         -5.5675    2.2701   50.1507 F       1  ZINC000098105561   -0.1700
     10 F10        -4.1326    1.5859   51.7916 F       1  ZINC000098105561   -0.1700
     11 F11        -6.0187    0.3763   51.3462 F       1  ZINC000098105561   -0.1700
     12 C12        -5.4866    4.7964   52.1917 C.2     1  ZINC000098105561    0.5800
     13 O13        -5.6263    5.9284   51.7725 O.2     1  ZINC000098105561   -0.4100
     14 C14        -4.2916    4.4458   52.9932 C.2     1  ZINC000098105561    0.0800
     15 C15        -3.0986    4.3227   52.3605 C.2     1  ZINC000098105561   -0.2000
     16 C16        -1.9190    3.9576   53.1631 C.2     1  ZINC000098105561    0.4200
     17 O17        -0.7863    4.0452   52.7228 O.2     1  ZINC000098105561   -0.4300
     18 C18        -2.1909    3.4790   54.5336 C.ar    1  ZINC000098105561   -0.2200
     19 C19        -1.2022    2.8667   55.3007 C.ar    1  ZINC000098105561   -0.0300
     20 C20        -1.5032    2.4304   56.5726 C.ar    1  ZINC000098105561   -0.1400
     21 C21        -2.7819    2.5992   57.0846 C.ar    1  ZINC000098105561   -0.0500
     22 C22        -3.7676    3.2054   56.3362 C.ar    1  ZINC000098105561   -0.1400
     23 C23        -3.4861    3.6573   55.0512 C.ar    1  ZINC000098105561    0.1400
     24 O24        -4.4339    4.2692   54.3139 O.3     1  ZINC000098105561   -0.2300
     25 N25        -8.7662    4.0442   51.5700 N.2     1  ZINC000098105561   -0.4600
     26 H26       -11.5225    5.2109   51.5150 H       1  ZINC000098105561    0.0800
     27 H27       -11.7400    4.1211   50.1246 H       1  ZINC000098105561    0.0800
     28 H28       -11.3379    3.4531   51.7247 H       1  ZINC000098105561    0.0800
     29 H29        -9.8722    5.2383   48.7429 H       1  ZINC000098105561    0.1900
     30 H30        -5.6986    2.5214   53.3722 H       1  ZINC000098105561    0.1700
     31 H31        -7.2300    2.0461   52.5992 H       1  ZINC000098105561    0.1400
     32 H32        -3.0157    4.4876   51.2965 H       1  ZINC000098105561    0.1800
     33 H33        -0.2075    2.7346   54.9014 H       1  ZINC000098105561    0.1400
     34 H34        -0.7415    1.9552   57.1730 H       1  ZINC000098105561    0.1400
     35 H35        -3.0075    2.2508   58.0817 H       1  ZINC000098105561    0.1400
     36 H36        -4.7584    3.3301   56.7475 H       1  ZINC000098105561    0.1400
@<TRIPOS>BOND
     1     1     2    1
     2     1    26    1
     3     1    27    1
     4     1    28    1
     5     2    25    1
     6     2     3    2
     7     3     4    1
     8     3    29    1
     9     4     5    1
    10     5     6    1
    11     5    25    2
    12     6     7    1
    13     6    12   am
    14     7     8    1
    15     7    30    1
    16     7    31    1
    17     8     9    1
    18     8    10    1
    19     8    11    1
    20    12    13    2
    21    12    14    1
    22    14    24    1
    23    14    15    2
    24    15    16    1
    25    15    32    1
    26    16    17    2
    27    16    18    1
    28    18    23   ar
    29    18    19   ar
    30    19    20   ar
    31    19    33    1
    32    20    21   ar
    33    20    34    1
    34    21    22   ar
    35    21    35    1
    36    22    23   ar
    37    22    36    1
    38    23    24    1
@<TRIPOS>SUBSTRUCTURE
     1 ZINC000098105561        1 TEMP              0 ****  ****    0 ROOT


##########                                Name:    ZINC000944933040
##########                DOCK_Rotatable_Bonds:                   4
##########                         Heavy_Atoms:                  26
##########                    Molecular_Weight:             354.449
##########                DOCK_Rotatable_Bonds:                   4
##########                       Formal_Charge:           0.0100002
##########                     HBond_Acceptors:                   5
##########                        HBond_Donors:                   0
##########                         Heavy_Atoms:                  26
##########                          Grid_Score:          -25.249136
##########                     Grid_vdw_energy:          -22.737991
##########                      Grid_es_energy:           -2.511145
##########           Internal_energy_repulsive:           10.499542

@<TRIPOS>MOLECULE
ZINC000944933040
 52 57 1 0 0
SMALL
USER_CHARGES


@<TRIPOS>ATOM
      1 O1        -16.4825   -1.1465   62.1663 O.2     1  ZINC000944933040   -0.5200
      2 C2        -15.4024   -0.6707   61.8730 C.2     1  ZINC000944933040    0.6400
      3 C3        -14.6746    0.1006   62.8354 C.1     1  ZINC000944933040   -0.2200
      4 C4        -14.0781    0.7329   63.6244 C.1     1  ZINC000944933040   -0.0400
      5 C5        -13.3300    1.5258   64.6136 C.3     1  ZINC000944933040   -0.0700
      6 C6        -11.9715    2.0864   64.1880 C.3     1  ZINC000944933040   -0.1600
      7 C7        -13.1708    3.0235   64.3441 C.3     1  ZINC000944933040   -0.1600
      8 N8        -14.8878   -0.8739   60.6441 N.am    1  ZINC000944933040   -0.6000
      9 C9        -15.6281   -1.6581   59.6468 C.3     1  ZINC000944933040    0.1100
     10 C10       -14.7348   -2.8051   59.1593 C.3     1  ZINC000944933040   -0.1200
     11 C11       -13.3929   -2.2355   58.7057 C.3     1  ZINC000944933040   -0.0900
     12 C12       -12.4995   -3.2599   57.9925 C.3     1  ZINC000944933040    0.1200
     13 N13       -12.1936   -2.1745   57.0392 N.am    1  ZINC000944933040   -0.6400
     14 C14       -11.1673   -1.9113   56.2062 C.2     1  ZINC000944933040    0.5500
     15 O15       -10.2263   -2.6738   56.1434 O.2     1  ZINC000944933040   -0.5300
     16 C16       -11.1890   -0.6694   55.3527 C.3     1  ZINC000944933040   -0.1300
     17 H17       -12.2095   -0.4204   55.0617 H       1  ZINC000944933040    0.1100
     18 C18       -10.2892   -0.8461   54.1031 C.3     1  ZINC000944933040   -0.1300
     19 C19        -9.2159    0.2678   54.2905 C.3     1  ZINC000944933040    0.0900
     20 H20        -8.2811    0.1115   53.7523 H       1  ZINC000944933040    0.1300
     21 O21        -9.1072    0.3169   55.7511 O.3     1  ZINC000944933040   -0.3600
     22 C22       -10.5208    0.5246   56.0983 C.3     1  ZINC000944933040    0.1200
     23 H23       -10.7384    0.6068   57.1632 H       1  ZINC000944933040    0.1400
     24 C24       -10.8606    1.7850   55.2476 C.3     1  ZINC000944933040   -0.2000
     25 H25       -11.9014    2.1041   55.1928 H       1  ZINC000944933040    0.1200
     26 C26        -9.7330    2.7901   55.0038 C.3     1  ZINC000944933040   -0.1300
     27 C27        -9.9513    1.6054   53.9775 C.3     1  ZINC000944933040   -0.2000
     28 H28       -10.2858    1.8143   52.9613 H       1  ZINC000944933040    0.1300
     29 C29       -13.4631   -1.4937   57.3635 C.3     1  ZINC000944933040    0.1100
     30 C30       -12.6718   -1.4517   59.7995 C.3     1  ZINC000944933040   -0.1100
     31 C31       -13.5814   -0.3090   60.2809 C.3     1  ZINC000944933040    0.1100
     32 H32       -13.4420    1.2101   65.6508 H       1  ZINC000944933040    0.1400
     33 H33       -11.1894    2.1395   64.9455 H       1  ZINC000944933040    0.1100
     34 H34       -11.6317    1.8681   63.1757 H       1  ZINC000944933040    0.1000
     35 H35       -13.6201    3.4217   63.4344 H       1  ZINC000944933040    0.1000
     36 H36       -13.1778    3.6930   65.2042 H       1  ZINC000944933040    0.1100
     37 H37       -16.5316   -2.0658   60.1000 H       1  ZINC000944933040    0.0900
     38 H38       -15.8952   -1.0196   58.8048 H       1  ZINC000944933040    0.0800
     39 H39       -14.5741   -3.5128   59.9726 H       1  ZINC000944933040    0.0800
     40 H40       -15.2167   -3.3123   58.3235 H       1  ZINC000944933040    0.0900
     41 H41       -11.6416   -3.5813   58.5830 H       1  ZINC000944933040    0.0800
     42 H42       -13.0495   -4.0909   57.5510 H       1  ZINC000944933040    0.0900
     43 H43        -9.8252   -1.8324   54.0977 H       1  ZINC000944933040    0.0800
     44 H44       -10.8606   -0.6820   53.1895 H       1  ZINC000944933040    0.0900
     45 H45       -10.0144    3.7877   54.6662 H       1  ZINC000944933040    0.1000
     46 H46        -8.8695    2.7463   55.6675 H       1  ZINC000944933040    0.1000
     47 H47       -14.2994   -1.7999   56.7350 H       1  ZINC000944933040    0.0900
     48 H48       -13.3710   -0.4114   57.4540 H       1  ZINC000944933040    0.0800
     49 H49       -12.4441   -2.1154   60.6336 H       1  ZINC000944933040    0.0800
     50 H50       -11.7468   -1.0359   59.4002 H       1  ZINC000944933040    0.0800
     51 H51       -13.7029    0.4226   59.4821 H       1  ZINC000944933040    0.0700
     52 H52       -13.1362    0.1697   61.1532 H       1  ZINC000944933040    0.1000
@<TRIPOS>BOND
     1     1     2    2
     2     2     3    1
     3     2     8   am
     4     3     4    3
     5     4     5    1
     6     5     7    1
     7     5     6    1
     8     5    32    1
     9     6     7    1
    10     6    33    1
    11     6    34    1
    12     7    35    1
    13     7    36    1
    14     8    31    1
    15     8     9    1
    16     9    10    1
    17     9    37    1
    18     9    38    1
    19    10    11    1
    20    10    39    1
    21    10    40    1
    22    11    29    1
    23    11    12    1
    24    11    30    1
    25    12    13    1
    26    12    41    1
    27    12    42    1
    28    13    14   am
    29    13    29    1
    30    14    15    2
    31    14    16    1
    32    16    17    1
    33    16    22    1
    34    16    18    1
    35    18    19    1
    36    18    43    1
    37    18    44    1
    38    19    20    1
    39    19    27    1
    40    19    21    1
    41    21    22    1
    42    22    23    1
    43    22    24    1
    44    24    25    1
    45    24    27    1
    46    24    26    1
    47    26    27    1
    48    26    45    1
    49    26    46    1
    50    27    28    1
    51    29    47    1
    52    29    48    1
    53    30    31    1
    54    30    49    1
    55    30    50    1
    56    31    51    1
    57    31    52    1
@<TRIPOS>SUBSTRUCTURE
     1 ZINC000944933040        1 TEMP              0 ****  ****    0 ROOT


##########                                Name:    ZINC000942661662
##########                DOCK_Rotatable_Bonds:                   6
##########                         Heavy_Atoms:                  25
##########                    Molecular_Weight:             343.426
##########                DOCK_Rotatable_Bonds:                   6
##########                       Formal_Charge:           0.0399997
##########                     HBond_Acceptors:                   6
##########                        HBond_Donors:                   1
##########                         Heavy_Atoms:                  25
##########                          Grid_Score:          -25.209639
##########                     Grid_vdw_energy:          -24.042055
##########                      Grid_es_energy:           -1.167583
##########           Internal_energy_repulsive:           29.880156

@<TRIPOS>MOLECULE
ZINC000942661662
 50 52 1 0 0
SMALL
USER_CHARGES


@<TRIPOS>ATOM
      1 C1          1.9780    2.6291   55.5271 C.3     1  ZINC000942661662   -0.1700
      2 C2          0.9394    2.1678   56.5514 C.3     1  ZINC000942661662    0.1000
      3 N3          0.3185    3.3375   57.1780 N.am    1  ZINC000942661662   -0.6000
      4 C4          0.6275    3.6650   58.4483 C.2     1  ZINC000942661662    0.6000
      5 O5          0.1122    4.6361   58.9685 O.2     1  ZINC000942661662   -0.5200
      6 C6          1.5899    2.8464   59.2071 C.2     1  ZINC000942661662   -0.2400
      7 C7          1.3053    1.8649   60.1109 C.2     1  ZINC000942661662    0.0700
      8 C8         -0.0739    1.4156   60.5192 C.3     1  ZINC000942661662   -0.0900
      9 O9          2.4577    1.3696   60.5724 O.3     1  ZINC000942661662   -0.1700
     10 C10         3.5058    1.9882   60.0066 C.2     1  ZINC000942661662   -0.0300
     11 C11         3.0572    2.9126   59.1436 C.2     1  ZINC000942661662   -0.1900
     12 C12        -0.6381    4.1512   56.4237 C.3     1  ZINC000942661662    0.1400
     13 H13        -0.1867    5.0933   56.1127 H       1  ZINC000942661662    0.1100
     14 C14        -1.9293    4.3983   57.2477 C.3     1  ZINC000942661662   -0.1400
     15 C15        -2.9990    4.6165   56.1569 C.3     1  ZINC000942661662    0.1000
     16 N16        -2.5008    3.9875   54.9250 N.am    1  ZINC000942661662   -0.6200
     17 C17        -3.1355    3.9772   53.7361 C.2     1  ZINC000942661662    0.6100
     18 O18        -4.2171    4.5225   53.6191 O.2     1  ZINC000942661662   -0.5200
     19 C19        -2.5227    3.3088   52.5833 C.2     1  ZINC000942661662   -0.0600
     20 C20        -3.1717    2.5146   51.6619 C.2     1  ZINC000942661662   -0.0700
     21 C21        -4.6392    2.1719   51.6510 C.3     1  ZINC000942661662   -0.0900
     22 C22        -2.2117    2.0875   50.7391 C.2     1  ZINC000942661662   -0.2100
     23 C23        -1.0196    2.6164   51.1049 C.2     1  ZINC000942661662    0.0500
     24 C24         0.2881    2.4114   50.3845 C.3     1  ZINC000942661662   -0.0900
     25 N25        -1.1959    3.3650   52.2208 N.pl3   1  ZINC000942661662   -0.5400
     26 C26        -1.1906    3.3711   55.2047 C.3     1  ZINC000942661662    0.0900
     27 H27         2.4400    1.7588   55.0608 H       1  ZINC000942661662    0.0700
     28 H28         1.4906    3.2347   54.7630 H       1  ZINC000942661662    0.0600
     29 H29         2.7433    3.2223   56.0275 H       1  ZINC000942661662    0.0600
     30 H30         0.1741    1.5745   56.0510 H       1  ZINC000942661662    0.0900
     31 H31         1.4267    1.5621   57.3155 H       1  ZINC000942661662    0.0800
     32 H32        -0.4032    0.6106   59.8620 H       1  ZINC000942661662    0.0900
     33 H33        -0.0494    1.0574   61.5484 H       1  ZINC000942661662    0.0900
     34 H34        -0.7667    2.2536   60.4425 H       1  ZINC000942661662    0.1000
     35 H35         4.5444    1.7728   60.2097 H       1  ZINC000942661662    0.2100
     36 H36         3.6525    3.5753   58.5330 H       1  ZINC000942661662    0.1600
     37 H37        -2.1712    3.5270   57.8563 H       1  ZINC000942661662    0.1000
     38 H38        -1.8257    5.2876   57.8695 H       1  ZINC000942661662    0.0900
     39 H39        -3.9366    4.1495   56.4586 H       1  ZINC000942661662    0.0700
     40 H40        -3.1497    5.6835   55.9935 H       1  ZINC000942661662    0.0700
     41 H41        -5.1818    2.9164   51.0685 H       1  ZINC000942661662    0.0700
     42 H42        -4.7791    1.1879   51.2036 H       1  ZINC000942661662    0.0600
     43 H43        -5.0179    2.1637   52.6730 H       1  ZINC000942661662    0.0800
     44 H44        -2.3893    1.4488   49.8865 H       1  ZINC000942661662    0.1400
     45 H45         0.4137    3.1893   49.6313 H       1  ZINC000942661662    0.0800
     46 H46         1.1089    2.4625   51.0999 H       1  ZINC000942661662    0.0700
     47 H47         0.2876    1.4345   49.9013 H       1  ZINC000942661662    0.0900
     48 H48        -0.5018    3.8544   52.6894 H       1  ZINC000942661662    0.4100
     49 H49        -0.5270    3.4851   54.3475 H       1  ZINC000942661662    0.0800
     50 H50        -1.3126    2.3170   55.4533 H       1  ZINC000942661662    0.1000
@<TRIPOS>BOND
     1     1     2    1
     2     1    27    1
     3     1    28    1
     4     1    29    1
     5     2     3    1
     6     2    30    1
     7     2    31    1
     8     3     4   am
     9     3    12    1
    10     4     5    2
    11     4     6    1
    12     6    11    1
    13     6     7    2
    14     7     8    1
    15     7     9    1
    16     8    32    1
    17     8    33    1
    18     8    34    1
    19     9    10    1
    20    10    11    2
    21    10    35    1
    22    11    36    1
    23    12    13    1
    24    12    26    1
    25    12    14    1
    26    14    15    1
    27    14    37    1
    28    14    38    1
    29    15    16    1
    30    15    39    1
    31    15    40    1
    32    16    17   am
    33    16    26    1
    34    17    18    2
    35    17    19    1
    36    19    25    1
    37    19    20    2
    38    20    21    1
    39    20    22    1
    40    21    41    1
    41    21    42    1
    42    21    43    1
    43    22    23    2
    44    22    44    1
    45    23    24    1
    46    23    25    1
    47    24    45    1
    48    24    46    1
    49    24    47    1
    50    25    48    1
    51    26    49    1
    52    26    50    1
@<TRIPOS>SUBSTRUCTURE
     1 ZINC000942661662        1 TEMP              0 ****  ****    0 ROOT


##########                                Name:    ZINC001018118384
##########                DOCK_Rotatable_Bonds:                   5
##########                         Heavy_Atoms:                  25
##########                    Molecular_Weight:             347.374
##########                DOCK_Rotatable_Bonds:                   5
##########                       Formal_Charge:           0.0299997
##########                     HBond_Acceptors:                   9
##########                        HBond_Donors:                   2
##########                         Heavy_Atoms:                  25
##########                          Grid_Score:          -25.206894
##########                     Grid_vdw_energy:          -21.803074
##########                      Grid_es_energy:           -3.403819
##########           Internal_energy_repulsive:           96.973801

@<TRIPOS>MOLECULE
ZINC001018118384
 46 48 1 0 0
SMALL
USER_CHARGES


@<TRIPOS>ATOM
      1 C1         -6.4674    3.3212   55.9969 C.3     1  ZINC001018118384   -0.0700
      2 C2         -7.6538    2.8928   56.8215 C.2     1  ZINC001018118384    0.2200
      3 N3         -8.7564    2.3843   56.3524 N.2     1  ZINC001018118384   -0.4600
      4 C4         -9.5944    2.1221   57.3878 C.2     1  ZINC001018118384   -0.0700
      5 C5        -10.9448    1.5414   57.2898 C.2     1  ZINC001018118384    0.6100
      6 O6        -11.9195    2.2686   57.2711 O.2     1  ZINC001018118384   -0.5400
      7 N7        -11.1000    0.2044   57.2209 N.am    1  ZINC001018118384   -0.5900
      8 C8         -9.9325   -0.6872   57.2484 C.3     1  ZINC001018118384    0.0700
      9 C9        -10.1283   -1.7216   58.3613 C.3     1  ZINC001018118384    0.1300
     10 H10        -9.3156   -2.4473   58.3303 H       1  ZINC001018118384    0.1100
     11 N11       -10.1315   -1.0463   59.6614 N.am    1  ZINC001018118384   -0.7000
     12 C12        -8.9689   -0.8094   60.3006 C.2     1  ZINC001018118384    0.6000
     13 O13        -7.9182   -1.1572   59.7995 O.2     1  ZINC001018118384   -0.4900
     14 C14        -8.9721   -0.1247   61.6151 C.2     1  ZINC001018118384    0.0300
     15 C15       -10.0712    0.2563   62.3258 C.2     1  ZINC001018118384   -0.2300
     16 C16        -9.5321    0.8598   63.4967 C.2     1  ZINC001018118384    0.4800
     17 O17       -10.1530    1.3489   64.4258 O.2     1  ZINC001018118384   -0.5200
     18 N18        -8.1927    0.7781   63.3659 N.am    1  ZINC001018118384   -0.4500
     19 C19        -7.2293    1.2789   64.3495 C.3     1  ZINC001018118384    0.1100
     20 O20        -7.8938    0.2304   62.3301 O.3     1  ZINC001018118384    0.0000
     21 C21       -11.4634   -2.4405   58.1550 C.3     1  ZINC001018118384   -0.1300
     22 C22       -12.6075   -1.4269   58.2309 C.3     1  ZINC001018118384   -0.1300
     23 C23       -12.4403   -0.3895   57.1227 C.3     1  ZINC001018118384    0.1400
     24 H24       -12.5497   -0.8717   56.1513 H       1  ZINC001018118384    0.0700
     25 C25       -13.5024    0.7010   57.2765 C.3     1  ZINC001018118384   -0.1400
     26 C26        -8.9579    2.4938   58.5359 C.2     1  ZINC001018118384    0.0400
     27 N27        -7.7427    2.9694   58.1750 N.pl3   1  ZINC001018118384   -0.5600
     28 H28        -5.7849    2.4798   55.8777 H       1  ZINC001018118384    0.0900
     29 H29        -6.8077    3.6547   55.0166 H       1  ZINC001018118384    0.1000
     30 H30        -5.9516    4.1390   56.5001 H       1  ZINC001018118384    0.0800
     31 H31        -9.8385   -1.1960   56.2890 H       1  ZINC001018118384    0.0800
     32 H32        -9.0325   -0.1046   57.4451 H       1  ZINC001018118384    0.1500
     33 H33       -10.9704   -0.7697   60.0621 H       1  ZINC001018118384    0.4100
     34 H34       -11.1106    0.1298   62.0613 H       1  ZINC001018118384    0.1900
     35 H35        -6.9999    0.4911   65.0670 H       1  ZINC001018118384    0.0800
     36 H36        -6.3152    1.5839   63.8400 H       1  ZINC001018118384    0.0900
     37 H37        -7.6561    2.1343   64.8731 H       1  ZINC001018118384    0.1100
     38 H38       -11.4692   -2.9221   57.1772 H       1  ZINC001018118384    0.0900
     39 H39       -11.5937   -3.1942   58.9316 H       1  ZINC001018118384    0.0800
     40 H40       -13.5596   -1.9431   58.1073 H       1  ZINC001018118384    0.0800
     41 H41       -12.5873   -0.9273   59.1994 H       1  ZINC001018118384    0.0600
     42 H42       -13.4007    1.1718   58.2543 H       1  ZINC001018118384    0.0700
     43 H43       -13.3688    1.4508   56.4966 H       1  ZINC001018118384    0.0800
     44 H44       -14.4941    0.2575   57.1881 H       1  ZINC001018118384    0.0400
     45 H45        -9.3470    2.4188   59.5405 H       1  ZINC001018118384    0.1900
     46 H46        -7.0607    3.3099   58.7747 H       1  ZINC001018118384    0.4300
@<TRIPOS>BOND
     1     1     2    1
     2     1    28    1
     3     1    29    1
     4     1    30    1
     5     2    27    1
     6     2     3    2
     7     3     4    1
     8     4     5    1
     9     4    26    2
    10     5     6    2
    11     5     7   am
    12     7    23    1
    13     7     8    1
    14     8     9    1
    15     8    31    1
    16     8    32    1
    17     9    10    1
    18     9    11    1
    19     9    21    1
    20    11    12   am
    21    11    33    1
    22    12    13    2
    23    12    14    1
    24    14    20    1
    25    14    15    2
    26    15    16    1
    27    15    34    1
    28    16    17    2
    29    16    18   am
    30    18    19    1
    31    18    20    1
    32    19    35    1
    33    19    36    1
    34    19    37    1
    35    21    22    1
    36    21    38    1
    37    21    39    1
    38    22    23    1
    39    22    40    1
    40    22    41    1
    41    23    24    1
    42    23    25    1
    43    25    42    1
    44    25    43    1
    45    25    44    1
    46    26    27    1
    47    26    45    1
    48    27    46    1
@<TRIPOS>SUBSTRUCTURE
     1 ZINC001018118384        1 TEMP              0 ****  ****    0 ROOT


##########                                Name:    ZINC000364058410
##########                DOCK_Rotatable_Bonds:                   5
##########                         Heavy_Atoms:                  25
##########                    Molecular_Weight:             358.464
##########                DOCK_Rotatable_Bonds:                   5
##########                       Formal_Charge:           0.0100002
##########                     HBond_Acceptors:                   7
##########                        HBond_Donors:                   0
##########                         Heavy_Atoms:                  25
##########                          Grid_Score:          -25.129700
##########                     Grid_vdw_energy:          -24.769922
##########                      Grid_es_energy:           -0.359777
##########           Internal_energy_repulsive:           75.553711

@<TRIPOS>MOLECULE
ZINC000364058410
 47 50 1 0 0
SMALL
USER_CHARGES


@<TRIPOS>ATOM
      1 C1          1.6322    0.3778   47.3330 C.3     1  ZINC000364058410   -0.0700
      2 C2          1.6697    1.2892   48.5326 C.2     1  ZINC000364058410   -0.2500
      3 C3          2.7546    1.5561   49.2959 C.2     1  ZINC000364058410    0.0800
      4 N4          2.3742    2.4141   50.2657 N.pl3   1  ZINC000364058410   -0.3600
      5 C5          3.2355    2.9667   51.3140 C.3     1  ZINC000364058410    0.1300
      6 C6          3.0372    4.4753   51.5478 C.3     1  ZINC000364058410    0.1100
      7 N7          2.0275    4.0853   52.5510 N.am    1  ZINC000364058410   -0.6500
      8 C8          0.9442    4.6847   53.0833 C.2     1  ZINC000364058410    0.5600
      9 O9          0.6339    5.8022   52.7285 O.2     1  ZINC000364058410   -0.5000
     10 C10         0.1185    3.9667   54.1194 C.3     1  ZINC000364058410    0.1400
     11 H11         0.6496    3.0768   54.4575 H       1  ZINC000364058410    0.0900
     12 C12        -0.1341    4.8972   55.3100 C.3     1  ZINC000364058410   -0.1200
     13 C13        -1.0866    4.2134   56.2936 C.3     1  ZINC000364058410   -0.1200
     14 C14        -2.4244    3.9383   55.6031 C.3     1  ZINC000364058410   -0.1400
     15 C15        -2.1977    2.9969   54.4160 C.3     1  ZINC000364058410    0.1000
     16 N16        -1.1731    3.5778   53.5371 N.am    1  ZINC000364058410   -0.6000
     17 C17        -1.4157    3.7550   52.2232 C.2     1  ZINC000364058410    0.5900
     18 O18        -0.5589    4.2372   51.5059 O.2     1  ZINC000364058410   -0.4900
     19 C19        -2.7115    3.3671   51.6583 C.2     1  ZINC000364058410   -0.2600
     20 C20        -2.9219    2.3248   50.8000 C.2     1  ZINC000364058410   -0.0600
     21 C21        -4.2375    2.1858   50.4260 C.2     1  ZINC000364058410   -0.1400
     22 C22        -5.0768    3.0820   50.9582 C.2     1  ZINC000364058410   -0.2400
     23 S23        -4.2451    4.1637   51.9824 S.3     1  ZINC000364058410    0.2100
     24 C24         2.6806    2.7749   52.7372 C.3     1  ZINC000364058410    0.0900
     25 N25         1.0105    2.6834   50.0924 N.2     1  ZINC000364058410   -0.3000
     26 C26         0.5907    2.0134   49.0498 C.2     1  ZINC000364058410    0.0500
     27 H27         1.8622    0.9502   46.4344 H       1  ZINC000364058410    0.0600
     28 H28         2.3689   -0.4161   47.4566 H       1  ZINC000364058410    0.0600
     29 H29         0.6383   -0.0601   47.2403 H       1  ZINC000364058410    0.0600
     30 H30         3.7471    1.1544   49.1545 H       1  ZINC000364058410    0.1700
     31 H31         4.2790    2.6710   51.2063 H       1  ZINC000364058410    0.1300
     32 H32         3.9093    4.9724   51.9726 H       1  ZINC000364058410    0.1100
     33 H33         2.6222    5.0023   50.6887 H       1  ZINC000364058410    0.0900
     34 H34         0.8102    5.1139   55.8091 H       1  ZINC000364058410    0.0800
     35 H35        -0.5813    5.8264   54.9569 H       1  ZINC000364058410    0.0800
     36 H36        -0.6498    3.2722   56.6272 H       1  ZINC000364058410    0.0700
     37 H37        -1.2487    4.8634   57.1534 H       1  ZINC000364058410    0.0800
     38 H38        -3.1101    3.4725   56.3109 H       1  ZINC000364058410    0.0800
     39 H39        -2.8499    4.8765   55.2473 H       1  ZINC000364058410    0.0700
     40 H40        -1.8577    2.0269   54.7786 H       1  ZINC000364058410    0.0800
     41 H41        -3.1288    2.8764   53.8622 H       1  ZINC000364058410    0.0900
     42 H42        -2.1333    1.6752   50.4501 H       1  ZINC000364058410    0.1500
     43 H43        -4.5693    1.4103   49.7515 H       1  ZINC000364058410    0.1500
     44 H44        -6.1395    3.1136   50.7680 H       1  ZINC000364058410    0.1700
     45 H45         1.9807    1.9441   52.8275 H       1  ZINC000364058410    0.0900
     46 H46         3.4479    2.7725   53.5113 H       1  ZINC000364058410    0.1100
     47 H47        -0.4166    2.0135   48.6606 H       1  ZINC000364058410    0.1800
@<TRIPOS>BOND
     1     1     2    1
     2     1    27    1
     3     1    28    1
     4     1    29    1
     5     2    26    1
     6     2     3    2
     7     3     4    1
     8     3    30    1
     9     4     5    1
    10     4    25    1
    11     5    24    1
    12     5     6    1
    13     5    31    1
    14     6     7    1
    15     6    32    1
    16     6    33    1
    17     7     8   am
    18     7    24    1
    19     8     9    2
    20     8    10    1
    21    10    11    1
    22    10    16    1
    23    10    12    1
    24    12    13    1
    25    12    34    1
    26    12    35    1
    27    13    14    1
    28    13    36    1
    29    13    37    1
    30    14    15    1
    31    14    38    1
    32    14    39    1
    33    15    16    1
    34    15    40    1
    35    15    41    1
    36    16    17   am
    37    17    18    2
    38    17    19    1
    39    19    23    1
    40    19    20    2
    41    20    21    1
    42    20    42    1
    43    21    22    2
    44    21    43    1
    45    22    23    1
    46    22    44    1
    47    24    45    1
    48    24    46    1
    49    25    26    2
    50    26    47    1
@<TRIPOS>SUBSTRUCTURE
     1 ZINC000364058410        1 TEMP              0 ****  ****    0 ROOT


##########                                Name:    ZINC001179023006
##########                DOCK_Rotatable_Bonds:                   3
##########                         Heavy_Atoms:                  25
##########                    Molecular_Weight:             340.465
##########                DOCK_Rotatable_Bonds:                   3
##########                       Formal_Charge:          -0.0100005
##########                     HBond_Acceptors:                   4
##########                        HBond_Donors:                   1
##########                         Heavy_Atoms:                  25
##########                          Grid_Score:          -25.029886
##########                     Grid_vdw_energy:          -20.879097
##########                      Grid_es_energy:           -4.150789
##########           Internal_energy_repulsive:           52.496738

@<TRIPOS>MOLECULE
ZINC001179023006
 53 56 1 0 0
SMALL
USER_CHARGES


@<TRIPOS>ATOM
      1 C1        -15.3224   -2.8950   58.8625 C.3     1  ZINC001179023006   -0.1500
      2 C2        -15.0406   -2.3236   60.2535 C.3     1  ZINC001179023006   -0.1100
      3 C3        -15.9229   -1.0960   60.4888 C.3     1  ZINC001179023006   -0.1100
      4 C4        -15.4974   -0.2912   61.6898 C.2     1  ZINC001179023006    0.5400
      5 O5        -16.1709   -0.3047   62.6983 O.2     1  ZINC001179023006   -0.5400
      6 N6        -14.3684    0.4435   61.6432 N.am    1  ZINC001179023006   -0.5900
      7 C7        -13.5384    0.4657   60.4312 C.3     1  ZINC001179023006    0.1000
      8 C8        -12.1013    0.1093   60.8044 C.3     1  ZINC001179023006   -0.1200
      9 C9        -11.6131    1.0597   61.9074 C.3     1  ZINC001179023006   -0.0500
     10 C10       -12.4950    0.8622   63.1493 C.3     1  ZINC001179023006   -0.1100
     11 C11       -13.9400    1.2336   62.8054 C.3     1  ZINC001179023006    0.0900
     12 C12       -10.1755    0.7132   62.2611 C.3     1  ZINC001179023006   -0.0800
     13 C13        -9.2804    0.7747   61.0614 C.ar    1  ZINC001179023006   -0.0700
     14 C14        -8.8167   -0.4182   60.5159 C.ar    1  ZINC001179023006   -0.1100
     15 C15        -8.0413   -0.3980   59.3733 C.ar    1  ZINC001179023006   -0.1100
     16 C16        -7.7221    0.8035   58.7693 C.ar    1  ZINC001179023006   -0.1200
     17 C17        -8.1728    1.9891   59.3222 C.ar    1  ZINC001179023006   -0.1000
     18 C18        -8.9412    1.9565   60.4723 C.ar    1  ZINC001179023006   -0.1100
     19 C19        -9.4109    3.2465   61.0949 C.3     1  ZINC001179023006    0.1400
     20 N20       -10.8526    3.3561   61.0701 N.am    1  ZINC001179023006   -0.7000
     21 C21       -11.7464    2.4721   61.4322 C.2     1  ZINC001179023006    0.5200
     22 O22       -12.8906    2.8693   61.3711 O.2     1  ZINC001179023006   -0.5500
     23 C23       -17.4291   -1.4043   60.4561 C.3     1  ZINC001179023006   -0.1200
     24 C24       -17.6022   -0.0785   59.6930 C.3     1  ZINC001179023006   -0.1400
     25 C25       -16.1467   -0.2470   59.2263 C.3     1  ZINC001179023006   -0.1300
     26 H26       -14.7220   -3.7918   58.7096 H       1  ZINC001179023006    0.0600
     27 H27       -16.3797   -3.1473   58.7807 H       1  ZINC001179023006    0.0500
     28 H28       -15.0663   -2.1530   58.1061 H       1  ZINC001179023006    0.0600
     29 H29       -13.9916   -2.0357   60.3223 H       1  ZINC001179023006    0.0700
     30 H30       -15.2603   -3.0790   61.0079 H       1  ZINC001179023006    0.0700
     31 H31       -13.9192   -0.2617   59.7144 H       1  ZINC001179023006    0.0900
     32 H32       -13.5619    1.4624   59.9905 H       1  ZINC001179023006    0.0800
     33 H33       -11.4609    0.2092   59.9280 H       1  ZINC001179023006    0.0800
     34 H34       -12.0652   -0.9181   61.1667 H       1  ZINC001179023006    0.0800
     35 H35       -12.1367    1.5019   63.9558 H       1  ZINC001179023006    0.0800
     36 H36       -12.4523   -0.1802   63.4651 H       1  ZINC001179023006    0.0800
     37 H37       -13.9972    2.2955   62.5664 H       1  ZINC001179023006    0.1200
     38 H38       -14.5860    1.0132   63.6552 H       1  ZINC001179023006    0.0800
     39 H39        -9.8141    1.4172   63.0108 H       1  ZINC001179023006    0.0800
     40 H40       -10.1442   -0.2939   62.6768 H       1  ZINC001179023006    0.0900
     41 H41        -9.0633   -1.3590   60.9853 H       1  ZINC001179023006    0.1200
     42 H42        -7.6827   -1.3247   58.9503 H       1  ZINC001179023006    0.1200
     43 H43        -7.1241    0.8168   57.8702 H       1  ZINC001179023006    0.1300
     44 H44        -7.9263    2.9332   58.8594 H       1  ZINC001179023006    0.1300
     45 H45        -8.9810    4.0841   60.5456 H       1  ZINC001179023006    0.0900
     46 H46        -9.0687    3.2878   62.1290 H       1  ZINC001179023006    0.0800
     47 H47       -11.2042    4.1979   60.7404 H       1  ZINC001179023006    0.4000
     48 H48       -17.6818   -2.2845   59.8650 H       1  ZINC001179023006    0.0900
     49 H49       -17.8958   -1.4064   61.4411 H       1  ZINC001179023006    0.0800
     50 H50       -17.7550    0.7819   60.3444 H       1  ZINC001179023006    0.0800
     51 H51       -18.3293   -0.1302   58.8826 H       1  ZINC001179023006    0.0700
     52 H52       -15.5797    0.6839   59.2199 H       1  ZINC001179023006    0.0700
     53 H53       -16.0481   -0.8102   58.2982 H       1  ZINC001179023006    0.0900
@<TRIPOS>BOND
     1     1     2    1
     2     1    26    1
     3     1    27    1
     4     1    28    1
     5     2     3    1
     6     2    29    1
     7     2    30    1
     8     3    25    1
     9     3     4    1
    10     3    23    1
    11     4     5    2
    12     4     6   am
    13     6    11    1
    14     6     7    1
    15     7     8    1
    16     7    31    1
    17     7    32    1
    18     8     9    1
    19     8    33    1
    20     8    34    1
    21     9    21    1
    22     9    10    1
    23     9    12    1
    24    10    11    1
    25    10    35    1
    26    10    36    1
    27    11    37    1
    28    11    38    1
    29    12    13    1
    30    12    39    1
    31    12    40    1
    32    13    18   ar
    33    13    14   ar
    34    14    15   ar
    35    14    41    1
    36    15    16   ar
    37    15    42    1
    38    16    17   ar
    39    16    43    1
    40    17    18   ar
    41    17    44    1
    42    18    19    1
    43    19    20    1
    44    19    45    1
    45    19    46    1
    46    20    21   am
    47    20    47    1
    48    21    22    2
    49    23    24    1
    50    23    48    1
    51    23    49    1
    52    24    25    1
    53    24    50    1
    54    24    51    1
    55    25    52    1
    56    25    53    1
@<TRIPOS>SUBSTRUCTURE
     1 ZINC001179023006        1 TEMP              0 ****  ****    0 ROOT


##########                                Name:    ZINC000326056918
##########                DOCK_Rotatable_Bonds:                   6
##########                         Heavy_Atoms:                  24
##########                    Molecular_Weight:             408.326
##########                DOCK_Rotatable_Bonds:                   6
##########                       Formal_Charge:         -0.00999978
##########                     HBond_Acceptors:                   9
##########                        HBond_Donors:                   0
##########                         Heavy_Atoms:                  24
##########                          Grid_Score:          -24.951147
##########                     Grid_vdw_energy:          -24.710056
##########                      Grid_es_energy:           -0.241091
##########           Internal_energy_repulsive:           26.740404

@<TRIPOS>MOLECULE
ZINC000326056918
 39 40 1 0 0
SMALL
USER_CHARGES


@<TRIPOS>ATOM
      1 C1         -0.2391    3.9899   53.6880 C.3     1  ZINC000326056918    0.0400
      2 O2         -1.2068    3.7471   52.6331 O.3     1  ZINC000326056918   -0.3500
      3 C3         -2.4329    3.3303   53.0110 C.2     1  ZINC000326056918    0.5000
      4 O4         -2.6819    3.1626   54.1897 O.2     1  ZINC000326056918   -0.4300
      5 C5         -3.4639    3.0797   52.0023 C.2     1  ZINC000326056918   -0.1600
      6 C6         -4.6276    3.7847   51.8650 C.2     1  ZINC000326056918   -0.6200
      7 S7         -5.0713    5.1344   52.9073 S.o2    1  ZINC000326056918    2.6900
      8 O8         -3.9234    5.4308   53.6905 O.2     1  ZINC000326056918   -0.9100
      9 O9         -5.7119    6.0909   52.0742 O.2     1  ZINC000326056918   -0.9400
     10 N10        -6.2253    4.5827   53.9591 N.am    1  ZINC000326056918   -0.9900
     11 C11        -7.5523    5.2030   53.9818 C.3     1  ZINC000326056918    0.0900
     12 C12        -5.9192    3.4743   54.8669 C.3     1  ZINC000326056918    0.1500
     13 C13        -6.9988    2.4279   54.7639 C.ar    1  ZINC000326056918   -0.0900
     14 C14        -7.1831    1.7397   53.5797 C.ar    1  ZINC000326056918   -0.0800
     15 C15        -8.1735    0.7800   53.4843 C.ar    1  ZINC000326056918   -0.1100
     16 C16        -8.9805    0.5076   54.5744 C.ar    1  ZINC000326056918   -0.0200
     17 Cl17      -10.2237   -0.6980   54.4546 Cl      1  ZINC000326056918   -0.0600
     18 C18        -8.7961    1.1959   55.7603 C.ar    1  ZINC000326056918   -0.1100
     19 C19        -7.8016    2.1523   55.8567 C.ar    1  ZINC000326056918   -0.0300
     20 Cl20       -7.5692    3.0161   57.3446 Cl      1  ZINC000326056918   -0.0100
     21 C21        -5.4160    3.3362   50.8327 C.2     1  ZINC000326056918   -0.0400
     22 C22        -6.7437    3.9652   50.4973 C.3     1  ZINC000326056918   -0.1100
     23 C23        -4.9183    2.3002   50.1466 C.2     1  ZINC000326056918   -0.2600
     24 S24        -3.4011    1.8286   50.7683 S.3     1  ZINC000326056918    0.3100
     25 H25         0.7024    4.3195   53.2486 H       1  ZINC000326056918    0.1100
     26 H26        -0.6175    4.7622   54.3577 H       1  ZINC000326056918    0.0700
     27 H27        -0.0755    3.0702   54.2498 H       1  ZINC000326056918    0.0700
     28 H28        -8.1798    4.7468   53.2161 H       1  ZINC000326056918    0.0600
     29 H29        -8.0068    5.0529   54.9610 H       1  ZINC000326056918    0.0700
     30 H30        -7.4576    6.2710   53.7851 H       1  ZINC000326056918    0.0900
     31 H31        -4.9601    3.0348   54.5932 H       1  ZINC000326056918    0.1100
     32 H32        -5.8698    3.8459   55.8904 H       1  ZINC000326056918    0.0900
     33 H33        -6.5533    1.9520   52.7283 H       1  ZINC000326056918    0.1400
     34 H34        -8.3175    0.2430   52.5583 H       1  ZINC000326056918    0.1400
     35 H35        -9.4258    0.9836   56.6117 H       1  ZINC000326056918    0.1500
     36 H36        -6.5824    4.8406   49.8681 H       1  ZINC000326056918    0.0900
     37 H37        -7.3632    3.2438   49.9644 H       1  ZINC000326056918    0.0700
     38 H38        -7.2458    4.2662   51.4168 H       1  ZINC000326056918    0.0900
     39 H39        -5.4099    1.8283   49.3087 H       1  ZINC000326056918    0.1800
@<TRIPOS>BOND
     1     1     2    1
     2     1    25    1
     3     1    26    1
     4     1    27    1
     5     2     3    1
     6     3     4    2
     7     3     5    1
     8     5    24    1
     9     5     6    2
    10     6     7    1
    11     6    21    1
    12     7     8    2
    13     7     9    2
    14     7    10   am
    15    10    11    1
    16    10    12    1
    17    11    28    1
    18    11    29    1
    19    11    30    1
    20    12    13    1
    21    12    31    1
    22    12    32    1
    23    13    19   ar
    24    13    14   ar
    25    14    15   ar
    26    14    33    1
    27    15    16   ar
    28    15    34    1
    29    16    17    1
    30    16    18   ar
    31    18    19   ar
    32    18    35    1
    33    19    20    1
    34    21    22    1
    35    21    23    2
    36    22    36    1
    37    22    37    1
    38    22    38    1
    39    23    24    1
    40    23    39    1
@<TRIPOS>SUBSTRUCTURE
     1 ZINC000326056918        1 TEMP              0 ****  ****    0 ROOT


##########                                Name:    ZINC000463474628
##########                DOCK_Rotatable_Bonds:                   5
##########                         Heavy_Atoms:                  25
##########                    Molecular_Weight:              407.35
##########                DOCK_Rotatable_Bonds:                   5
##########                       Formal_Charge:           0.0200004
##########                     HBond_Acceptors:                   4
##########                        HBond_Donors:                   0
##########                         Heavy_Atoms:                  25
##########                          Grid_Score:          -24.932861
##########                     Grid_vdw_energy:          -24.042273
##########                      Grid_es_energy:           -0.890589
##########           Internal_energy_repulsive:           36.324951

@<TRIPOS>MOLECULE
ZINC000463474628
 52 54 1 0 0
SMALL
USER_CHARGES


@<TRIPOS>ATOM
      1 C1         -3.0314    2.7068   57.1798 C.3     1  ZINC000463474628   -0.1400
      2 C2         -2.6307    3.6404   56.0358 C.3     1  ZINC000463474628   -0.1300
      3 C3         -1.3163    3.1571   55.4197 C.3     1  ZINC000463474628    0.1400
      4 H4         -1.4209    2.1247   55.0862 H       1  ZINC000463474628    0.0800
      5 C5         -0.1803    3.2605   56.4591 C.3     1  ZINC000463474628   -0.1300
      6 C6          1.0283    3.7307   55.6074 C.3     1  ZINC000463474628   -0.1300
      7 C7          0.3408    4.6660   54.5816 C.3     1  ZINC000463474628    0.0900
      8 N8         -0.9516    4.0152   54.2829 N.am    1  ZINC000463474628   -0.6100
      9 C9         -1.6740    4.1830   53.1576 C.2     1  ZINC000463474628    0.5300
     10 O10        -1.2723    4.9216   52.2835 O.2     1  ZINC000463474628   -0.5100
     11 C11        -2.9810    3.4527   52.9855 C.3     1  ZINC000463474628   -0.1200
     12 H12        -3.0747    2.6878   53.7564 H       1  ZINC000463474628    0.1000
     13 C13        -3.0199    2.7937   51.6048 C.3     1  ZINC000463474628   -0.1000
     14 C14        -4.3329    2.0245   51.4416 C.3     1  ZINC000463474628   -0.1300
     15 C15        -5.5085    3.0014   51.5444 C.3     1  ZINC000463474628    0.0900
     16 N16        -5.3972    3.7441   52.8072 N.am    1  ZINC000463474628   -0.6000
     17 C17        -6.4275    3.7810   53.6753 C.2     1  ZINC000463474628    0.5700
     18 O18        -6.3228    4.3989   54.7169 O.2     1  ZINC000463474628   -0.5200
     19 C19        -7.6845    3.0701   53.3609 C.ar    1  ZINC000463474628   -0.1200
     20 C20        -7.7223    1.6748   53.3726 C.ar    1  ZINC000463474628   -0.0800
     21 C21        -8.8983    1.0170   53.0782 C.ar    1  ZINC000463474628   -0.1000
     22 C22       -10.0399    1.7379   52.7714 C.ar    1  ZINC000463474628   -0.0700
     23 Br23      -11.6483    0.8283   52.3696 Br      1  ZINC000463474628   -0.0400
     24 C24       -10.0087    3.1225   52.7581 C.ar    1  ZINC000463474628   -0.0900
     25 C25        -8.8405    3.7915   53.0563 C.ar    1  ZINC000463474628   -0.0300
     26 C26        -8.8083    5.2981   53.0412 C.3     1  ZINC000463474628   -0.1300
     27 C27        -4.1413    4.4456   53.1066 C.3     1  ZINC000463474628    0.1200
     28 H28        -3.5480    1.8367   56.7749 H       1  ZINC000463474628    0.0700
     29 H29        -2.1383    2.3829   57.7141 H       1  ZINC000463474628    0.0600
     30 H30        -3.6933    3.2358   57.8656 H       1  ZINC000463474628    0.0300
     31 H31        -3.4112    3.6381   55.2748 H       1  ZINC000463474628    0.0600
     32 H32        -2.5014    4.6519   56.4205 H       1  ZINC000463474628    0.0700
     33 H33        -0.4233    3.9980   57.2240 H       1  ZINC000463474628    0.0800
     34 H34         0.0202    2.2882   56.9093 H       1  ZINC000463474628    0.0800
     35 H35         1.7459    4.2798   56.2171 H       1  ZINC000463474628    0.0900
     36 H36         1.5062    2.8878   55.1084 H       1  ZINC000463474628    0.0800
     37 H37         0.1787    5.6522   55.0166 H       1  ZINC000463474628    0.0700
     38 H38         0.9428    4.7440   53.6763 H       1  ZINC000463474628    0.0800
     39 H39        -2.9505    3.5612   50.8340 H       1  ZINC000463474628    0.0800
     40 H40        -2.1810    2.1047   51.5075 H       1  ZINC000463474628    0.0700
     41 H41        -4.3498    1.5362   50.4673 H       1  ZINC000463474628    0.0800
     42 H42        -4.4144    1.2732   52.2271 H       1  ZINC000463474628    0.0700
     43 H43        -5.4788    3.6983   50.7068 H       1  ZINC000463474628    0.0800
     44 H44        -6.4468    2.4470   51.5281 H       1  ZINC000463474628    0.1000
     45 H45        -6.8323    1.1114   53.6114 H       1  ZINC000463474628    0.1400
     46 H46        -8.9287   -0.0625   53.0867 H       1  ZINC000463474628    0.1400
     47 H47       -10.9024    3.6793   52.5176 H       1  ZINC000463474628    0.1400
     48 H48        -8.9701    5.6751   54.0510 H       1  ZINC000463474628    0.0700
     49 H49        -7.8382    5.6372   52.6778 H       1  ZINC000463474628    0.0900
     50 H50        -9.5934    5.6718   52.3839 H       1  ZINC000463474628    0.0700
     51 H51        -4.1780    4.8440   54.1206 H       1  ZINC000463474628    0.1000
     52 H52        -3.9996    5.2604   52.3965 H       1  ZINC000463474628    0.0800
@<TRIPOS>BOND
     1     1     2    1
     2     1    28    1
     3     1    29    1
     4     1    30    1
     5     2     3    1
     6     2    31    1
     7     2    32    1
     8     3     4    1
     9     3     8    1
    10     3     5    1
    11     5     6    1
    12     5    33    1
    13     5    34    1
    14     6     7    1
    15     6    35    1
    16     6    36    1
    17     7     8    1
    18     7    37    1
    19     7    38    1
    20     8     9   am
    21     9    10    2
    22     9    11    1
    23    11    12    1
    24    11    27    1
    25    11    13    1
    26    13    14    1
    27    13    39    1
    28    13    40    1
    29    14    15    1
    30    14    41    1
    31    14    42    1
    32    15    16    1
    33    15    43    1
    34    15    44    1
    35    16    17   am
    36    16    27    1
    37    17    18    2
    38    17    19    1
    39    19    25   ar
    40    19    20   ar
    41    20    21   ar
    42    20    45    1
    43    21    22   ar
    44    21    46    1
    45    22    23    1
    46    22    24   ar
    47    24    25   ar
    48    24    47    1
    49    25    26    1
    50    26    48    1
    51    26    49    1
    52    26    50    1
    53    27    51    1
    54    27    52    1
@<TRIPOS>SUBSTRUCTURE
     1 ZINC000463474628        1 TEMP              0 ****  ****    0 ROOT


##########                                Name:    ZINC001060620810
##########                DOCK_Rotatable_Bonds:                   5
##########                         Heavy_Atoms:                  24
##########                    Molecular_Weight:             332.421
##########                DOCK_Rotatable_Bonds:                   5
##########                       Formal_Charge:           0.0299998
##########                     HBond_Acceptors:                   6
##########                        HBond_Donors:                   2
##########                         Heavy_Atoms:                  24
##########                          Grid_Score:          -24.903727
##########                     Grid_vdw_energy:          -23.735500
##########                      Grid_es_energy:           -1.168227
##########           Internal_energy_repulsive:            9.755841

@<TRIPOS>MOLECULE
ZINC001060620810
 49 52 1 0 0
SMALL
USER_CHARGES


@<TRIPOS>ATOM
      1 O1         -3.9393    4.9419   54.7818 O.2     1  ZINC001060620810   -0.5400
      2 C2         -3.5978    3.9482   54.1759 C.2     1  ZINC001060620810    0.5500
      3 N3         -2.6865    3.1122   54.7117 N.am    1  ZINC001060620810   -0.7200
      4 C4         -2.1099    3.4026   56.0267 C.3     1  ZINC001060620810    0.1400
      5 C5         -1.8078    2.0899   56.7523 C.3     1  ZINC001060620810   -0.1300
      6 C6         -1.2055    2.3932   58.1257 C.3     1  ZINC001060620810   -0.1300
      7 C7          0.0896    3.1888   57.9502 C.3     1  ZINC001060620810    0.1600
      8 N8          1.0423    2.4031   57.1620 N.pl3   1  ZINC001060620810   -0.6900
      9 C9          2.4030    2.5374   57.3851 C.ar    1  ZINC001060620810    0.5600
     10 N10         3.2234    1.5863   56.9647 N.ar    1  ZINC001060620810   -0.5400
     11 C11         4.5286    1.6848   57.1570 C.ar    1  ZINC001060620810    0.1700
     12 C12         5.0331    2.7965   57.8171 C.ar    1  ZINC001060620810   -0.0700
     13 F13         6.3600    2.9273   58.0348 F       1  ZINC001060620810   -0.1300
     14 C14         4.1439    3.7709   58.2483 C.ar    1  ZINC001060620810    0.1800
     15 N15         2.8509    3.6110   58.0184 N.ar    1  ZINC001060620810   -0.5500
     16 C16        -0.2125    4.5015   57.2246 C.3     1  ZINC001060620810   -0.1200
     17 C17        -0.8148    4.1981   55.8512 C.3     1  ZINC001060620810   -0.1300
     18 C18        -4.1923    3.6485   52.8239 C.3     1  ZINC001060620810   -0.1500
     19 C19        -5.3304    4.5586   52.3808 C.3     1  ZINC001060620810   -0.1500
     20 C20        -5.6263    3.1424   52.8256 C.3     1  ZINC001060620810   -0.1100
     21 H21        -6.1188    3.0411   53.7926 H       1  ZINC001060620810    0.1100
     22 C22        -6.1034    2.1553   51.7649 C.3     1  ZINC001060620810   -0.0900
     23 C23        -4.9120    1.4540   51.1123 C.3     1  ZINC001060620810   -0.1200
     24 C24        -3.9372    2.5208   50.6009 C.3     1  ZINC001060620810   -0.1200
     25 C25        -3.2010    3.1223   51.7980 C.3     1  ZINC001060620810   -0.0800
     26 H26        -2.4125    2.3182   54.2266 H       1  ZINC001060620810    0.4000
     27 H27        -2.8187    3.9872   56.6132 H       1  ZINC001060620810    0.0900
     28 H28        -2.7304    1.5231   56.8773 H       1  ZINC001060620810    0.0700
     29 H29        -1.0990    1.5054   56.1658 H       1  ZINC001060620810    0.0600
     30 H30        -0.9903    1.4580   58.6426 H       1  ZINC001060620810    0.0700
     31 H31        -1.9143    2.9777   58.7122 H       1  ZINC001060620810    0.0800
     32 H32         0.5186    3.4048   58.9287 H       1  ZINC001060620810    0.1000
     33 H33         0.7203    1.7889   56.4838 H       1  ZINC001060620810    0.4100
     34 H34         5.1928    0.9078   56.8086 H       1  ZINC001060620810    0.1800
     35 H35         4.5029    4.6483   58.7655 H       1  ZINC001060620810    0.1800
     36 H36         0.7101    5.0682   57.0997 H       1  ZINC001060620810    0.0800
     37 H37        -0.9214    5.0859   57.8112 H       1  ZINC001060620810    0.0900
     38 H38        -0.1060    3.6136   55.2648 H       1  ZINC001060620810    0.0700
     39 H39        -1.0301    5.1333   55.3344 H       1  ZINC001060620810    0.0800
     40 H40        -5.6244    5.3628   53.0552 H       1  ZINC001060620810    0.1000
     41 H41        -5.4116    4.7823   51.3170 H       1  ZINC001060620810    0.1100
     42 H42        -6.6569    2.7084   51.0061 H       1  ZINC001060620810    0.0700
     43 H43        -6.7575    1.4103   52.2179 H       1  ZINC001060620810    0.0700
     44 H44        -5.2583    0.8444   50.2778 H       1  ZINC001060620810    0.0700
     45 H45        -4.4115    0.8230   51.8469 H       1  ZINC001060620810    0.0700
     46 H46        -4.4906    3.3030   50.0809 H       1  ZINC001060620810    0.0700
     47 H47        -3.2183    2.0638   49.9209 H       1  ZINC001060620810    0.0700
     48 H48        -2.5679    3.9414   51.4564 H       1  ZINC001060620810    0.0700
     49 H49        -2.5788    2.3553   52.2593 H       1  ZINC001060620810    0.0700
@<TRIPOS>BOND
     1     1     2    2
     2     2     3   am
     3     2    18    1
     4     3     4    1
     5     3    26    1
     6     4    17    1
     7     4     5    1
     8     4    27    1
     9     5     6    1
    10     5    28    1
    11     5    29    1
    12     6     7    1
    13     6    30    1
    14     6    31    1
    15     7     8    1
    16     7    16    1
    17     7    32    1
    18     8     9    1
    19     8    33    1
    20     9    15   ar
    21     9    10   ar
    22    10    11   ar
    23    11    12   ar
    24    11    34    1
    25    12    13    1
    26    12    14   ar
    27    14    15   ar
    28    14    35    1
    29    16    17    1
    30    16    36    1
    31    16    37    1
    32    17    38    1
    33    17    39    1
    34    18    20    1
    35    18    25    1
    36    18    19    1
    37    19    20    1
    38    19    40    1
    39    19    41    1
    40    20    21    1
    41    20    22    1
    42    22    23    1
    43    22    42    1
    44    22    43    1
    45    23    24    1
    46    23    44    1
    47    23    45    1
    48    24    25    1
    49    24    46    1
    50    24    47    1
    51    25    48    1
    52    25    49    1
@<TRIPOS>SUBSTRUCTURE
     1 ZINC001060620810        1 TEMP              0 ****  ****    0 ROOT


##########                                Name:    ZINC000521663393
##########                DOCK_Rotatable_Bonds:                   5
##########                         Heavy_Atoms:                  27
##########                    Molecular_Weight:              386.49
##########                DOCK_Rotatable_Bonds:                   5
##########                       Formal_Charge:               -0.02
##########                     HBond_Acceptors:                   6
##########                        HBond_Donors:                   1
##########                         Heavy_Atoms:                  27
##########                          Grid_Score:          -24.892653
##########                     Grid_vdw_energy:          -23.527447
##########                      Grid_es_energy:           -1.365205
##########           Internal_energy_repulsive:           27.233906

@<TRIPOS>MOLECULE
ZINC000521663393
 50 53 1 0 0
SMALL
USER_CHARGES


@<TRIPOS>ATOM
      1 C1         -3.6754    4.8874   56.8399 C.3     1  ZINC000521663393   -0.1500
      2 C2         -3.1513    3.9453   55.7541 C.3     1  ZINC000521663393    0.0800
      3 H3         -3.4232    2.9135   55.9762 H       1  ZINC000521663393    0.0900
      4 O4         -1.7269    4.0769   55.6099 O.3     1  ZINC000521663393   -0.2900
      5 C5         -1.3893    3.8913   54.3042 C.ar    1  ZINC000521663393    0.1400
      6 C6         -0.1579    3.5748   53.7372 C.ar    1  ZINC000521663393   -0.1800
      7 C7         -0.0367    3.4413   52.3672 C.ar    1  ZINC000521663393    0.1400
      8 F8          1.1620    3.1347   51.8247 F       1  ZINC000521663393   -0.1300
      9 C9         -1.1386    3.6202   51.5478 C.ar    1  ZINC000521663393   -0.1800
     10 C10        -2.3660    3.9302   52.1059 C.ar    1  ZINC000521663393   -0.0200
     11 C11        -2.4886    4.0603   53.4714 C.ar    1  ZINC000521663393   -0.2000
     12 C12        -3.6811    4.3646   54.3625 C.3     1  ZINC000521663393    0.1700
     13 H13        -3.9223    5.4272   54.3409 H       1  ZINC000521663393    0.1200
     14 N14        -4.8422    3.5589   53.9763 N.am    1  ZINC000521663393   -0.7200
     15 C15        -6.0356    4.1511   53.7722 C.2     1  ZINC000521663393    0.5300
     16 O16        -6.1479    5.3512   53.9066 O.2     1  ZINC000521663393   -0.5000
     17 C17        -7.2303    3.3221   53.3767 C.3     1  ZINC000521663393    0.1200
     18 H18        -7.9484    3.9487   52.8480 H       1  ZINC000521663393    0.0700
     19 C19        -6.7859    2.1980   52.4767 C.ar    1  ZINC000521663393   -0.0900
     20 C20        -6.0784    2.4756   51.3219 C.ar    1  ZINC000521663393   -0.0900
     21 C21        -5.6708    1.4445   50.4964 C.ar    1  ZINC000521663393   -0.1200
     22 C22        -5.9703    0.1358   50.8257 C.ar    1  ZINC000521663393   -0.1100
     23 C23        -6.6769   -0.1419   51.9809 C.ar    1  ZINC000521663393   -0.1200
     24 C24        -7.0808    0.8889   52.8086 C.ar    1  ZINC000521663393   -0.1100
     25 N25        -7.8601    2.7650   54.5813 N.3     1  ZINC000521663393   -0.5300
     26 C26        -9.2957    2.5602   54.3762 C.3     1  ZINC000521663393    0.0500
     27 C27        -9.8409    1.5965   55.4358 C.3     1  ZINC000521663393   -0.0700
     28 S28        -9.6056    2.3483   57.0753 S.3     1  ZINC000521663393   -0.2700
     29 C29        -7.8427    2.7945   57.0344 C.3     1  ZINC000521663393   -0.0700
     30 C30        -7.5727    3.5932   55.7546 C.3     1  ZINC000521663393    0.0600
     31 H31        -4.7625    4.8218   56.8841 H       1  ZINC000521663393    0.0800
     32 H32        -3.2546    4.6007   57.8037 H       1  ZINC000521663393    0.0800
     33 H33        -3.3823    5.9107   56.6055 H       1  ZINC000521663393    0.0700
     34 H34         0.7057    3.4336   54.3702 H       1  ZINC000521663393    0.1400
     35 H35        -1.0401    3.5183   50.4771 H       1  ZINC000521663393    0.1400
     36 H36        -3.2281    4.0703   51.4706 H       1  ZINC000521663393    0.1300
     37 H37        -4.7521    2.5993   53.8676 H       1  ZINC000521663393    0.4000
     38 H38        -5.8445    3.4981   51.0647 H       1  ZINC000521663393    0.1300
     39 H39        -5.1187    1.6615   49.5938 H       1  ZINC000521663393    0.1300
     40 H40        -5.6524   -0.6697   50.1803 H       1  ZINC000521663393    0.1200
     41 H41        -6.9112   -1.1643   52.2380 H       1  ZINC000521663393    0.1300
     42 H42        -7.6330    0.6720   53.7112 H       1  ZINC000521663393    0.1200
     43 H43        -9.8130    3.5163   54.4557 H       1  ZINC000521663393    0.0500
     44 H44        -9.4637    2.1404   53.3843 H       1  ZINC000521663393    0.1000
     45 H45       -10.9027    1.4231   55.2615 H       1  ZINC000521663393    0.1100
     46 H46        -9.2993    0.6519   55.3848 H       1  ZINC000521663393    0.0900
     47 H47        -7.5988    3.4039   57.9047 H       1  ZINC000521663393    0.1100
     48 H48        -7.2356    1.8892   57.0360 H       1  ZINC000521663393    0.1000
     49 H49        -6.5272    3.9008   55.7335 H       1  ZINC000521663393    0.0800
     50 H50        -8.2096    4.4775   55.7385 H       1  ZINC000521663393    0.0500
@<TRIPOS>BOND
     1     1     2    1
     2     1    31    1
     3     1    32    1
     4     1    33    1
     5     2     3    1
     6     2    12    1
     7     2     4    1
     8     4     5    1
     9     5    11   ar
    10     5     6   ar
    11     6     7   ar
    12     6    34    1
    13     7     8    1
    14     7     9   ar
    15     9    10   ar
    16     9    35    1
    17    10    11   ar
    18    10    36    1
    19    11    12    1
    20    12    13    1
    21    12    14    1
    22    14    15   am
    23    14    37    1
    24    15    16    2
    25    15    17    1
    26    17    18    1
    27    17    19    1
    28    17    25    1
    29    19    24   ar
    30    19    20   ar
    31    20    21   ar
    32    20    38    1
    33    21    22   ar
    34    21    39    1
    35    22    23   ar
    36    22    40    1
    37    23    24   ar
    38    23    41    1
    39    24    42    1
    40    25    30    1
    41    25    26    1
    42    26    27    1
    43    26    43    1
    44    26    44    1
    45    27    28    1
    46    27    45    1
    47    27    46    1
    48    28    29    1
    49    29    30    1
    50    29    47    1
    51    29    48    1
    52    30    49    1
    53    30    50    1
@<TRIPOS>SUBSTRUCTURE
     1 ZINC000521663393        1 TEMP              0 ****  ****    0 ROOT


##########                                Name:    ZINC000435292384
##########                DOCK_Rotatable_Bonds:                   6
##########                         Heavy_Atoms:                  22
##########                    Molecular_Weight:             326.503
##########                DOCK_Rotatable_Bonds:                   6
##########                       Formal_Charge:         -0.00999993
##########                     HBond_Acceptors:                   5
##########                        HBond_Donors:                   0
##########                         Heavy_Atoms:                  22
##########                          Grid_Score:          -24.869213
##########                     Grid_vdw_energy:          -24.533316
##########                      Grid_es_energy:           -0.335897
##########           Internal_energy_repulsive:           18.283913

@<TRIPOS>MOLECULE
ZINC000435292384
 52 53 1 0 0
SMALL
USER_CHARGES


@<TRIPOS>ATOM
      1 C1         -8.6527   -0.1151   65.2564 C.3     1  ZINC000435292384   -0.1500
      2 C2         -8.1783    0.2483   63.8480 C.3     1  ZINC000435292384   -0.1200
      3 C3         -9.3399    0.0972   62.8637 C.3     1  ZINC000435292384   -0.1400
      4 C4         -8.8262    0.2890   61.4352 C.3     1  ZINC000435292384    0.1600
      5 H5         -7.8064   -0.0887   61.3622 H       1  ZINC000435292384    0.0900
      6 C6         -8.8454    1.7775   61.0820 C.3     1  ZINC000435292384   -0.1700
      7 N7         -9.6868   -0.4450   60.5042 N.am    1  ZINC000435292384   -0.6100
      8 C8        -11.1383   -0.5952   60.6612 C.3     1  ZINC000435292384    0.1200
      9 C9        -11.6592   -1.0369   59.2756 C.3     1  ZINC000435292384   -0.1300
     10 H10       -11.9646   -0.1759   58.6811 H       1  ZINC000435292384    0.1100
     11 C11       -12.7911   -2.0222   59.4140 C.2     1  ZINC000435292384    0.5200
     12 O12       -12.9184   -2.6596   60.4379 O.2     1  ZINC000435292384   -0.5200
     13 N13       -13.6618   -2.1950   58.3999 N.am    1  ZINC000435292384   -0.6000
     14 C14       -14.7593   -3.1677   58.5676 C.3     1  ZINC000435292384    0.1000
     15 C15       -16.0961   -2.6340   58.0218 C.3     1  ZINC000435292384   -0.1300
     16 C16       -16.2559   -1.1762   58.3766 C.3     1  ZINC000435292384   -0.1100
     17 C17       -15.7019   -0.3167   57.2443 C.3     1  ZINC000435292384   -0.1200
     18 C18       -14.2517   -0.0813   57.3162 C.3     1  ZINC000435292384   -0.0700
     19 H19       -14.0092    0.3877   58.2699 H       1  ZINC000435292384    0.0900
     20 S20       -13.7543    1.0192   55.9626 S.3     1  ZINC000435292384   -0.2500
     21 C21       -13.7546    2.6554   56.7457 C.3     1  ZINC000435292384   -0.1200
     22 C22       -13.4858   -1.4157   57.1949 C.3     1  ZINC000435292384    0.1400
     23 C23       -10.4076   -1.7124   58.6689 C.3     1  ZINC000435292384   -0.1400
     24 C24        -9.2493   -1.0626   59.3933 C.2     1  ZINC000435292384    0.5200
     25 O25        -8.0933   -1.0996   59.0287 O.2     1  ZINC000435292384   -0.5200
     26 H26        -7.8252   -0.0075   65.9576 H       1  ZINC000435292384    0.0500
     27 H27        -9.4656    0.5495   65.5489 H       1  ZINC000435292384    0.0500
     28 H28        -9.0054   -1.1465   65.2661 H       1  ZINC000435292384    0.0500
     29 H29        -7.8257    1.2797   63.8382 H       1  ZINC000435292384    0.0600
     30 H30        -7.3654   -0.4164   63.5555 H       1  ZINC000435292384    0.0600
     31 H31        -9.7735   -0.8979   62.9633 H       1  ZINC000435292384    0.0800
     32 H32       -10.0998    0.8480   63.0804 H       1  ZINC000435292384    0.0800
     33 H33        -9.8653    2.1552   61.1551 H       1  ZINC000435292384    0.0700
     34 H34        -8.2052    2.3237   61.7748 H       1  ZINC000435292384    0.0700
     35 H35        -8.4795    1.9142   60.0644 H       1  ZINC000435292384    0.0600
     36 H36       -11.3599   -1.3575   61.4081 H       1  ZINC000435292384    0.0900
     37 H37       -11.5872    0.3560   60.9473 H       1  ZINC000435292384    0.0800
     38 H38       -14.5024   -4.0857   58.0390 H       1  ZINC000435292384    0.0700
     39 H39       -14.8743   -3.3923   59.6280 H       1  ZINC000435292384    0.0900
     40 H40       -16.1148   -2.7464   56.9378 H       1  ZINC000435292384    0.0700
     41 H41       -16.9174   -3.2039   58.4566 H       1  ZINC000435292384    0.0800
     42 H42       -17.3126   -0.9507   58.5208 H       1  ZINC000435292384    0.0700
     43 H43       -15.7095   -0.9635   59.2955 H       1  ZINC000435292384    0.0600
     44 H44       -15.9264   -0.8061   56.2966 H       1  ZINC000435292384    0.0800
     45 H45       -16.2102    0.6474   57.2610 H       1  ZINC000435292384    0.0600
     46 H46       -14.7532    2.8782   57.1213 H       1  ZINC000435292384    0.0800
     47 H47       -13.0452    2.6623   57.5734 H       1  ZINC000435292384    0.0800
     48 H48       -13.4654    3.4089   56.0131 H       1  ZINC000435292384    0.1000
     49 H49       -12.4249   -1.2134   57.0480 H       1  ZINC000435292384    0.0900
     50 H50       -13.8689   -1.9780   56.3433 H       1  ZINC000435292384    0.0900
     51 H51       -10.4252   -2.7862   58.8556 H       1  ZINC000435292384    0.1100
     52 H52       -10.3462   -1.5112   57.5994 H       1  ZINC000435292384    0.1100
@<TRIPOS>BOND
     1     1     2    1
     2     1    26    1
     3     1    27    1
     4     1    28    1
     5     2     3    1
     6     2    29    1
     7     2    30    1
     8     3     4    1
     9     3    31    1
    10     3    32    1
    11     4     5    1
    12     4     6    1
    13     4     7    1
    14     6    33    1
    15     6    34    1
    16     6    35    1
    17     7    24   am
    18     7     8    1
    19     8     9    1
    20     8    36    1
    21     8    37    1
    22     9    10    1
    23     9    11    1
    24     9    23    1
    25    11    12    2
    26    11    13   am
    27    13    22    1
    28    13    14    1
    29    14    15    1
    30    14    38    1
    31    14    39    1
    32    15    16    1
    33    15    40    1
    34    15    41    1
    35    16    17    1
    36    16    42    1
    37    16    43    1
    38    17    18    1
    39    17    44    1
    40    17    45    1
    41    18    19    1
    42    18    20    1
    43    18    22    1
    44    20    21    1
    45    21    46    1
    46    21    47    1
    47    21    48    1
    48    22    49    1
    49    22    50    1
    50    23    24    1
    51    23    51    1
    52    23    52    1
    53    24    25    2
@<TRIPOS>SUBSTRUCTURE
     1 ZINC000435292384        1 TEMP              0 ****  ****    0 ROOT


##########                                Name:    ZINC001013196242
##########                DOCK_Rotatable_Bonds:                   5
##########                         Heavy_Atoms:                  24
##########                    Molecular_Weight:              349.86
##########                DOCK_Rotatable_Bonds:                   5
##########                       Formal_Charge:        -3.05474e-07
##########                     HBond_Acceptors:                   6
##########                        HBond_Donors:                   1
##########                         Heavy_Atoms:                  24
##########                          Grid_Score:          -24.797504
##########                     Grid_vdw_energy:          -24.907694
##########                      Grid_es_energy:            0.110189
##########           Internal_energy_repulsive:           14.027418

@<TRIPOS>MOLECULE
ZINC001013196242
 48 51 1 0 0
SMALL
USER_CHARGES


@<TRIPOS>ATOM
      1 C1         -3.2469    6.3755   55.8586 C.3     1  ZINC001013196242   -0.1600
      2 C2         -3.3079    4.8634   56.0836 C.3     1  ZINC001013196242    0.1400
      3 H3         -4.2927    4.5839   56.4581 H       1  ZINC001013196242    0.0800
      4 C4         -2.2220    4.4389   57.0946 C.3     1  ZINC001013196242   -0.1400
      5 C5         -1.7232    3.0861   56.5213 C.3     1  ZINC001013196242    0.1300
      6 H6         -2.3795    2.2691   56.8210 H       1  ZINC001013196242    0.1100
      7 N7         -0.3407    2.8215   56.9274 N.am    1  ZINC001013196242   -0.7200
      8 C8         -0.0886    2.2089   58.1011 C.2     1  ZINC001013196242    0.5400
      9 O9         -1.0064    1.8752   58.8203 O.2     1  ZINC001013196242   -0.5200
     10 C10         1.3335    1.9383   58.5196 C.3     1  ZINC001013196242   -0.1400
     11 C11         2.3678    2.2494   57.4234 C.3     1  ZINC001013196242   -0.0800
     12 C12         2.4239    3.6697   57.9963 C.3     1  ZINC001013196242   -0.1600
     13 C13         3.4618    4.7572   57.7423 C.3     1  ZINC001013196242   -0.1700
     14 C14         2.0018    4.9782   57.3373 C.3     1  ZINC001013196242   -0.1400
     15 C15         1.9637    3.0815   59.3345 C.3     1  ZINC001013196242   -0.0800
     16 C16        -1.8156    3.3417   54.9962 C.3     1  ZINC001013196242    0.0800
     17 N17        -3.0343    4.1588   54.8225 N.am    1  ZINC001013196242   -0.6000
     18 C18        -3.7689    4.2439   53.6959 C.2     1  ZINC001013196242    0.6100
     19 O19        -4.7572    4.9534   53.6660 O.2     1  ZINC001013196242   -0.5400
     20 C20        -3.3772    3.4816   52.5057 C.2     1  ZINC001013196242   -0.0400
     21 C21        -2.1247    3.4571   51.9294 C.2     1  ZINC001013196242   -0.1400
     22 C22        -2.1980    2.6050   50.8224 C.2     1  ZINC001013196242   -0.1200
     23 Cl23       -0.8954    2.2188   49.7418 Cl      1  ZINC001013196242   -0.0400
     24 C24        -3.4664    2.1344   50.7436 C.2     1  ZINC001013196242    0.0400
     25 N25        -4.1915    2.6559   51.7642 N.pl3   1  ZINC001013196242   -0.4000
     26 C26        -5.6079    2.3911   52.0287 C.3     1  ZINC001013196242    0.0700
     27 H27        -4.0126    6.6671   55.1396 H       1  ZINC001013196242    0.0700
     28 H28        -3.4205    6.8908   56.8033 H       1  ZINC001013196242    0.0700
     29 H29        -2.2641    6.6460   55.4724 H       1  ZINC001013196242    0.0600
     30 H30        -1.4128    5.1687   57.1203 H       1  ZINC001013196242    0.0900
     31 H31        -2.6514    4.3023   58.0870 H       1  ZINC001013196242    0.0900
     32 H32         0.3933    3.0873   56.3515 H       1  ZINC001013196242    0.4000
     33 H33         1.4608    0.9563   58.9752 H       1  ZINC001013196242    0.1000
     34 H34         3.3008    1.6966   57.5331 H       1  ZINC001013196242    0.1000
     35 H35         1.9618    2.2012   56.4130 H       1  ZINC001013196242    0.0700
     36 H36         3.8341    5.3094   58.6051 H       1  ZINC001013196242    0.1000
     37 H37         4.1852    4.5865   56.9450 H       1  ZINC001013196242    0.0900
     38 H38         1.7649    4.9527   56.2737 H       1  ZINC001013196242    0.0900
     39 H39         1.4137    5.6756   57.9339 H       1  ZINC001013196242    0.1000
     40 H40         1.2338    3.7005   59.8563 H       1  ZINC001013196242    0.0800
     41 H41         2.7842    2.7603   59.9762 H       1  ZINC001013196242    0.0900
     42 H42        -0.9385    3.8879   54.6493 H       1  ZINC001013196242    0.0800
     43 H43        -1.9133    2.3984   54.4588 H       1  ZINC001013196242    0.1000
     44 H44        -1.2517    3.9949   52.2685 H       1  ZINC001013196242    0.1600
     45 H45        -3.8380    1.4524   49.9931 H       1  ZINC001013196242    0.1800
     46 H46        -5.6968    1.5917   52.7644 H       1  ZINC001013196242    0.0800
     47 H47        -6.0805    3.2942   52.4145 H       1  ZINC001013196242    0.1000
     48 H48        -6.1001    2.0900   51.1039 H       1  ZINC001013196242    0.0900
@<TRIPOS>BOND
     1     1     2    1
     2     1    27    1
     3     1    28    1
     4     1    29    1
     5     2     3    1
     6     2    17    1
     7     2     4    1
     8     4     5    1
     9     4    30    1
    10     4    31    1
    11     5     6    1
    12     5     7    1
    13     5    16    1
    14     7     8   am
    15     7    32    1
    16     8     9    2
    17     8    10    1
    18    10    15    1
    19    10    11    1
    20    10    33    1
    21    11    12    1
    22    11    34    1
    23    11    35    1
    24    12    14    1
    25    12    13    1
    26    12    15    1
    27    13    14    1
    28    13    36    1
    29    13    37    1
    30    14    38    1
    31    14    39    1
    32    15    40    1
    33    15    41    1
    34    16    17    1
    35    16    42    1
    36    16    43    1
    37    17    18   am
    38    18    19    2
    39    18    20    1
    40    20    25    1
    41    20    21    2
    42    21    22    1
    43    21    44    1
    44    22    23    1
    45    22    24    2
    46    24    25    1
    47    24    45    1
    48    25    26    1
    49    26    46    1
    50    26    47    1
    51    26    48    1
@<TRIPOS>SUBSTRUCTURE
     1 ZINC001013196242        1 TEMP              0 ****  ****    0 ROOT


##########                                Name:    ZINC000560467340
##########                DOCK_Rotatable_Bonds:                   7
##########                         Heavy_Atoms:                  24
##########                    Molecular_Weight:             369.481
##########                DOCK_Rotatable_Bonds:                   7
##########                       Formal_Charge:          -0.0199997
##########                     HBond_Acceptors:                   7
##########                        HBond_Donors:                   2
##########                         Heavy_Atoms:                  24
##########                          Grid_Score:          -24.739016
##########                     Grid_vdw_energy:          -22.208786
##########                      Grid_es_energy:           -2.530230
##########           Internal_energy_repulsive:           17.857250

@<TRIPOS>MOLECULE
ZINC000560467340
 44 46 1 0 0
SMALL
USER_CHARGES


@<TRIPOS>ATOM
      1 O1         -9.5240   -0.0966   57.9837 O.2     1  ZINC000560467340   -0.9600
      2 S2         -8.3041    0.3884   58.5278 S.o2    1  ZINC000560467340    2.7100
      3 O3         -7.1348   -0.4100   58.6478 O.2     1  ZINC000560467340   -0.9500
      4 N4         -7.8791    1.7072   57.6209 N.am    1  ZINC000560467340   -1.0900
      5 C5         -7.5097    1.5399   56.2132 C.3     1  ZINC000560467340    0.1400
      6 C6         -8.0539    2.7159   55.3998 C.3     1  ZINC000560467340   -0.0500
      7 C7         -7.3521    4.0101   55.8163 C.3     1  ZINC000560467340   -0.0700
      8 C8         -5.8604    3.7955   55.8148 C.ar    1  ZINC000560467340   -0.0900
      9 C9         -5.2174    3.4066   56.9751 C.ar    1  ZINC000560467340   -0.0900
     10 C10        -3.8496    3.2095   56.9750 C.ar    1  ZINC000560467340   -0.1500
     11 C11        -3.1232    3.4013   55.8119 C.ar    1  ZINC000560467340    0.1000
     12 F12        -1.7861    3.2085   55.8105 F       1  ZINC000560467340   -0.1400
     13 C13        -3.7683    3.7904   54.6503 C.ar    1  ZINC000560467340   -0.1500
     14 C14        -5.1370    3.9822   54.6517 C.ar    1  ZINC000560467340   -0.0900
     15 C15        -9.5761    2.8467   55.6133 C.3     1  ZINC000560467340   -0.1300
     16 C16       -10.1194    3.2683   54.2254 C.3     1  ZINC000560467340   -0.1200
     17 C17        -9.2413    2.4457   53.2502 C.3     1  ZINC000560467340   -0.1600
     18 C18        -7.8410    2.4609   53.8973 C.3     1  ZINC000560467340    0.1100
     19 H19        -7.2385    3.2597   53.4647 H       1  ZINC000560467340    0.0600
     20 O20        -7.1969    1.2007   53.7001 O.3     1  ZINC000560467340   -0.5500
     21 C21        -8.6786    0.9689   60.1488 C.2     1  ZINC000560467340   -0.6900
     22 C22        -8.6873    0.1663   61.2141 C.2     1  ZINC000560467340   -0.1000
     23 S23        -9.1020    1.0951   62.6491 S.3     1  ZINC000560467340    0.1500
     24 C24        -9.2444    2.5647   61.6931 C.2     1  ZINC000560467340   -0.2200
     25 C25        -8.9803    2.2936   60.4141 C.2     1  ZINC000560467340   -0.0700
     26 H26        -7.8748    2.5904   58.0217 H       1  ZINC000560467340    0.4200
     27 H27        -6.4239    1.5078   56.1238 H       1  ZINC000560467340    0.0600
     28 H28        -7.9331    0.6095   55.8346 H       1  ZINC000560467340    0.0800
     29 H29        -7.6057    4.8035   55.1132 H       1  ZINC000560467340    0.0800
     30 H30        -7.6773    4.2938   56.8172 H       1  ZINC000560467340    0.0800
     31 H31        -5.7843    3.2570   57.8822 H       1  ZINC000560467340    0.1300
     32 H32        -3.3473    2.9063   57.8818 H       1  ZINC000560467340    0.1400
     33 H33        -3.2027    3.9406   53.7425 H       1  ZINC000560467340    0.1400
     34 H34        -5.6405    4.2854   53.7455 H       1  ZINC000560467340    0.1300
     35 H35       -10.0025    1.8900   55.9152 H       1  ZINC000560467340    0.0700
     36 H36        -9.7926    3.6137   56.3568 H       1  ZINC000560467340    0.0800
     37 H37       -11.1699    2.9961   54.1228 H       1  ZINC000560467340    0.0700
     38 H38        -9.9788    4.3371   54.0639 H       1  ZINC000560467340    0.0700
     39 H39        -9.6137    1.4244   53.1706 H       1  ZINC000560467340    0.0800
     40 H40        -9.2134    2.9201   52.2692 H       1  ZINC000560467340    0.0700
     41 H41        -6.2945    1.1619   54.0456 H       1  ZINC000560467340    0.3800
     42 H42        -8.4729   -0.8921   61.1981 H       1  ZINC000560467340    0.1800
     43 H43        -9.5017    3.5384   62.0830 H       1  ZINC000560467340    0.1700
     44 H44        -9.0076    3.0489   59.6426 H       1  ZINC000560467340    0.1500
@<TRIPOS>BOND
     1     1     2    2
     2     2     3    2
     3     2     4   am
     4     2    21    1
     5     4     5    1
     6     4    26    1
     7     5     6    1
     8     5    27    1
     9     5    28    1
    10     6    18    1
    11     6     7    1
    12     6    15    1
    13     7     8    1
    14     7    29    1
    15     7    30    1
    16     8    14   ar
    17     8     9   ar
    18     9    10   ar
    19     9    31    1
    20    10    11   ar
    21    10    32    1
    22    11    12    1
    23    11    13   ar
    24    13    14   ar
    25    13    33    1
    26    14    34    1
    27    15    16    1
    28    15    35    1
    29    15    36    1
    30    16    17    1
    31    16    37    1
    32    16    38    1
    33    17    18    1
    34    17    39    1
    35    17    40    1
    36    18    19    1
    37    18    20    1
    38    20    41    1
    39    21    25    1
    40    21    22    2
    41    22    23    1
    42    22    42    1
    43    23    24    1
    44    24    25    2
    45    24    43    1
    46    25    44    1
@<TRIPOS>SUBSTRUCTURE
     1 ZINC000560467340        1 TEMP              0 ****  ****    0 ROOT


##########                                Name:    ZINC001011267435
##########                DOCK_Rotatable_Bonds:                   7
##########                         Heavy_Atoms:                  24
##########                    Molecular_Weight:             331.458
##########                DOCK_Rotatable_Bonds:                   7
##########                       Formal_Charge:        -4.47035e-08
##########                     HBond_Acceptors:                   5
##########                        HBond_Donors:                   0
##########                         Heavy_Atoms:                  24
##########                          Grid_Score:          -24.705215
##########                     Grid_vdw_energy:          -23.377630
##########                      Grid_es_energy:           -1.327586
##########           Internal_energy_repulsive:           36.788296

@<TRIPOS>MOLECULE
ZINC001011267435
 53 54 1 0 0
SMALL
USER_CHARGES


@<TRIPOS>ATOM
      1 C1          5.4125   -0.2971   59.2220 C.3     1  ZINC001011267435   -0.1500
      2 C2          4.6240    0.9704   58.8866 C.3     1  ZINC001011267435   -0.1200
      3 C3          3.7026    0.6979   57.6961 C.3     1  ZINC001011267435   -0.0700
      4 C4          2.9269    1.9468   57.3649 C.ar    1  ZINC001011267435    0.1300
      5 C5          1.6095    2.0567   57.7652 C.ar    1  ZINC001011267435   -0.1200
      6 C6          0.9005    3.2206   57.4517 C.ar    1  ZINC001011267435   -0.0800
      7 C7         -0.5140    3.3837   57.8605 C.2     1  ZINC001011267435    0.5600
      8 O8         -0.7827    3.7395   58.9910 O.2     1  ZINC001011267435   -0.5200
      9 N9         -1.5031    3.1374   56.9786 N.am    1  ZINC001011267435   -0.6100
     10 C10        -2.9106    3.3009   57.3684 C.3     1  ZINC001011267435    0.0700
     11 C11        -3.5833    4.2644   56.3829 C.3     1  ZINC001011267435    0.1000
     12 N12        -3.2736    3.8281   55.0141 N.am    1  ZINC001011267435   -0.6200
     13 C13        -4.2625    3.5827   54.1320 C.2     1  ZINC001011267435    0.5300
     14 O14        -5.4204    3.7216   54.4651 O.2     1  ZINC001011267435   -0.5300
     15 C15        -3.9297    3.1359   52.7318 C.3     1  ZINC001011267435   -0.1100
     16 H16        -3.1643    2.3608   52.7701 H       1  ZINC001011267435    0.0900
     17 C17        -3.4087    4.3278   51.9263 C.3     1  ZINC001011267435   -0.1500
     18 C18        -5.1871    2.5782   52.0619 C.3     1  ZINC001011267435   -0.0800
     19 C19        -6.0101    3.7305   51.4825 C.3     1  ZINC001011267435   -0.1500
     20 C20        -4.7844    1.6230   50.9366 C.3     1  ZINC001011267435   -0.1500
     21 C21        -1.8660    3.6646   54.6243 C.3     1  ZINC001011267435    0.0900
     22 C22        -1.1931    2.7065   55.6082 C.3     1  ZINC001011267435    0.1000
     23 C23         1.5639    4.2261   56.7424 C.ar    1  ZINC001011267435   -0.1600
     24 C24         2.8835    4.0323   56.3815 C.ar    1  ZINC001011267435    0.1100
     25 N25         3.5165    2.9217   56.7018 N.ar    1  ZINC001011267435   -0.4600
     26 H26         4.7197   -1.0996   59.4751 H       1  ZINC001011267435    0.0600
     27 H27         6.0105   -0.5917   58.3597 H       1  ZINC001011267435    0.0500
     28 H28         6.0689   -0.1028   60.0703 H       1  ZINC001011267435    0.0600
     29 H29         4.0260    1.2652   59.7489 H       1  ZINC001011267435    0.0700
     30 H30         5.3168    1.7731   58.6336 H       1  ZINC001011267435    0.0600
     31 H31         4.3006    0.4022   56.8341 H       1  ZINC001011267435    0.0800
     32 H32         3.0091   -0.1040   57.9495 H       1  ZINC001011267435    0.0900
     33 H33         1.1340    1.2556   58.3117 H       1  ZINC001011267435    0.1400
     34 H34        -3.4138    2.3345   57.3363 H       1  ZINC001011267435    0.0800
     35 H35        -2.9656    3.7115   58.3766 H       1  ZINC001011267435    0.1100
     36 H36        -4.6624    4.2500   56.5360 H       1  ZINC001011267435    0.1100
     37 H37        -3.2025    5.2735   56.5401 H       1  ZINC001011267435    0.0700
     38 H38        -3.2464    4.0244   50.8921 H       1  ZINC001011267435    0.0800
     39 H39        -4.1403    5.1352   51.9576 H       1  ZINC001011267435    0.0600
     40 H40        -2.4681    4.6732   52.3555 H       1  ZINC001011267435    0.0600
     41 H41        -5.7834    2.0405   52.7990 H       1  ZINC001011267435    0.0800
     42 H42        -6.9059    3.3332   51.0052 H       1  ZINC001011267435    0.0600
     43 H43        -6.2970    4.4111   52.2841 H       1  ZINC001011267435    0.0600
     44 H44        -5.4137    4.2682   50.7454 H       1  ZINC001011267435    0.0600
     45 H45        -4.1981    0.8020   51.3494 H       1  ZINC001011267435    0.0600
     46 H46        -5.6802    1.2257   50.4593 H       1  ZINC001011267435    0.0600
     47 H47        -4.1880    2.1607   50.1995 H       1  ZINC001011267435    0.0500
     48 H48        -1.8110    3.2540   53.6161 H       1  ZINC001011267435    0.1000
     49 H49        -1.3629    4.6310   54.6564 H       1  ZINC001011267435    0.0800
     50 H50        -0.1142    2.7219   55.4538 H       1  ZINC001011267435    0.1100
     51 H51        -1.5729    1.6966   55.4532 H       1  ZINC001011267435    0.0800
     52 H52         1.0524    5.1405   56.4800 H       1  ZINC001011267435    0.1500
     53 H53         3.4044    4.8032   55.8330 H       1  ZINC001011267435    0.1700
@<TRIPOS>BOND
     1     1     2    1
     2     1    26    1
     3     1    27    1
     4     1    28    1
     5     2     3    1
     6     2    29    1
     7     2    30    1
     8     3     4    1
     9     3    31    1
    10     3    32    1
    11     4    25   ar
    12     4     5   ar
    13     5     6   ar
    14     5    33    1
    15     6     7    1
    16     6    23   ar
    17     7     8    2
    18     7     9   am
    19     9    22    1
    20     9    10    1
    21    10    11    1
    22    10    34    1
    23    10    35    1
    24    11    12    1
    25    11    36    1
    26    11    37    1
    27    12    13   am
    28    12    21    1
    29    13    14    2
    30    13    15    1
    31    15    16    1
    32    15    17    1
    33    15    18    1
    34    17    38    1
    35    17    39    1
    36    17    40    1
    37    18    19    1
    38    18    20    1
    39    18    41    1
    40    19    42    1
    41    19    43    1
    42    19    44    1
    43    20    45    1
    44    20    46    1
    45    20    47    1
    46    21    22    1
    47    21    48    1
    48    21    49    1
    49    22    50    1
    50    22    51    1
    51    23    24   ar
    52    23    52    1
    53    24    25   ar
    54    24    53    1
@<TRIPOS>SUBSTRUCTURE
     1 ZINC001011267435        1 TEMP              0 ****  ****    0 ROOT


##########                                Name:    ZINC001122903793
##########                DOCK_Rotatable_Bonds:                   4
##########                         Heavy_Atoms:                  25
##########                    Molecular_Weight:             399.968
##########                DOCK_Rotatable_Bonds:                   4
##########                       Formal_Charge:           0.0100003
##########                     HBond_Acceptors:                   9
##########                        HBond_Donors:                   0
##########                         Heavy_Atoms:                  25
##########                          Grid_Score:          -24.691284
##########                     Grid_vdw_energy:          -24.116095
##########                      Grid_es_energy:           -0.575190
##########           Internal_energy_repulsive:           13.293881

@<TRIPOS>MOLECULE
ZINC001122903793
 47 50 1 0 0
SMALL
USER_CHARGES


@<TRIPOS>ATOM
      1 C1        -10.2470   -0.7996   60.0058 C.3     1  ZINC001122903793   -0.1400
      2 C2         -9.3968   -0.3397   58.8197 C.3     1  ZINC001122903793   -0.0400
      3 H3         -9.1124   -1.2022   58.2169 H       1  ZINC001122903793    0.1000
      4 S4         -7.9025    0.5003   59.4280 S.3     1  ZINC001122903793   -0.2500
      5 C5         -7.2075    1.1879   57.8942 C.3     1  ZINC001122903793   -0.0800
      6 C6         -8.3093    1.9666   57.1673 C.3     1  ZINC001122903793    0.0700
      7 N7         -9.4028    1.0617   56.8060 N.3     1  ZINC001122903793   -0.4800
      8 C8        -10.2071    1.6210   55.8266 C.2     1  ZINC001122903793    0.3700
      9 N9        -10.8705    2.7501   55.9158 N.2     1  ZINC001122903793   -0.2900
     10 N10       -11.5146    2.9725   54.8264 N.2     1  ZINC001122903793   -0.2400
     11 C11       -11.3014    1.9961   53.9722 C.2     1  ZINC001122903793    0.2600
     12 C12       -11.8600    1.8822   52.6150 C.2     1  ZINC001122903793   -0.1600
     13 C13       -11.7185    2.7846   51.6154 C.2     1  ZINC001122903793    0.1600
     14 Cl14      -10.8251    4.2619   51.7970 Cl      1  ZINC001122903793    0.0300
     15 N15       -12.3167    2.4447   50.4955 N.2     1  ZINC001122903793   -0.4600
     16 C16       -12.9520    1.3201   50.4807 C.2     1  ZINC001122903793    0.0300
     17 S17       -12.8257    0.5435   51.9983 S.3     1  ZINC001122903793    0.2200
     18 N18       -10.4525    1.1026   54.5862 N.pl3   1  ZINC001122903793   -0.4600
     19 C19        -9.9279   -0.1466   54.0289 C.3     1  ZINC001122903793    0.1100
     20 C20        -8.9966    0.1693   52.8569 C.3     1  ZINC001122903793    0.0700
     21 H21        -9.5510    0.6552   52.0541 H       1  ZINC001122903793    0.0800
     22 C22        -7.8283    1.0723   53.3267 C.3     1  ZINC001122903793   -0.1500
     23 C23        -6.7481    0.7338   52.2635 C.3     1  ZINC001122903793   -0.1500
     24 C24        -7.0242   -0.7584   51.9794 C.3     1  ZINC001122903793    0.0500
     25 O25        -8.3743   -1.0328   52.3764 O.3     1  ZINC001122903793   -0.3700
     26 C26       -10.1989    0.6455   57.9627 C.3     1  ZINC001122903793    0.1000
     27 H27       -10.4500    1.5199   58.5631 H       1  ZINC001122903793    0.0800
     28 C28       -11.4860   -0.0255   57.4789 C.3     1  ZINC001122903793   -0.1500
     29 H29       -11.1449   -1.2963   59.6383 H       1  ZINC001122903793    0.0800
     30 H30        -9.6716   -1.4947   60.6173 H       1  ZINC001122903793    0.0700
     31 H31       -10.5299    0.0647   60.6067 H       1  ZINC001122903793    0.0700
     32 H32        -6.3825    1.8586   58.1344 H       1  ZINC001122903793    0.1200
     33 H33        -6.8512    0.3777   57.2581 H       1  ZINC001122903793    0.0900
     34 H34        -8.6897    2.7515   57.8211 H       1  ZINC001122903793    0.0700
     35 H35        -7.8985    2.4172   56.2638 H       1  ZINC001122903793    0.0900
     36 H36       -13.4840    0.9242   49.6284 H       1  ZINC001122903793    0.2100
     37 H37        -9.3738   -0.6835   54.7988 H       1  ZINC001122903793    0.1200
     38 H38       -10.7552   -0.7642   53.6794 H       1  ZINC001122903793    0.1000
     39 H39        -8.1045    2.1258   53.2844 H       1  ZINC001122903793    0.0900
     40 H40        -7.4953    0.7952   54.3270 H       1  ZINC001122903793    0.0800
     41 H41        -6.8885    1.3324   51.3636 H       1  ZINC001122903793    0.0800
     42 H42        -5.7463    0.8722   52.6704 H       1  ZINC001122903793    0.0900
     43 H43        -6.9049   -0.9604   50.9149 H       1  ZINC001122903793    0.0700
     44 H44        -6.3356   -1.3778   52.5540 H       1  ZINC001122903793    0.0700
     45 H45       -11.2361   -0.8986   56.8760 H       1  ZINC001122903793    0.0600
     46 H46       -12.0794   -0.3358   58.3390 H       1  ZINC001122903793    0.0800
     47 H47       -12.0593    0.6795   56.8771 H       1  ZINC001122903793    0.0600
@<TRIPOS>BOND
     1     1     2    1
     2     1    29    1
     3     1    30    1
     4     1    31    1
     5     2     3    1
     6     2    26    1
     7     2     4    1
     8     4     5    1
     9     5     6    1
    10     5    32    1
    11     5    33    1
    12     6     7    1
    13     6    34    1
    14     6    35    1
    15     7     8    1
    16     7    26    1
    17     8    18    1
    18     8     9    2
    19     9    10    1
    20    10    11    2
    21    11    12    1
    22    11    18    1
    23    12    17    1
    24    12    13    2
    25    13    14    1
    26    13    15    1
    27    15    16    2
    28    16    17    1
    29    16    36    1
    30    18    19    1
    31    19    20    1
    32    19    37    1
    33    19    38    1
    34    20    21    1
    35    20    25    1
    36    20    22    1
    37    22    23    1
    38    22    39    1
    39    22    40    1
    40    23    24    1
    41    23    41    1
    42    23    42    1
    43    24    25    1
    44    24    43    1
    45    24    44    1
    46    26    27    1
    47    26    28    1
    48    28    45    1
    49    28    46    1
    50    28    47    1
@<TRIPOS>SUBSTRUCTURE
     1 ZINC001122903793        1 TEMP              0 ****  ****    0 ROOT


##########                                Name:    ZINC000888733009
##########                DOCK_Rotatable_Bonds:                   6
##########                         Heavy_Atoms:                  25
##########                    Molecular_Weight:             360.434
##########                DOCK_Rotatable_Bonds:                   6
##########                       Formal_Charge:        -1.02073e-06
##########                     HBond_Acceptors:                   7
##########                        HBond_Donors:                   2
##########                         Heavy_Atoms:                  25
##########                          Grid_Score:          -24.688265
##########                     Grid_vdw_energy:          -22.603373
##########                      Grid_es_energy:           -2.084892
##########           Internal_energy_repulsive:            8.139960

@<TRIPOS>MOLECULE
ZINC000888733009
 45 48 1 0 0
SMALL
USER_CHARGES


@<TRIPOS>ATOM
      1 C1          2.6044    0.3414   46.3915 C.3     1  ZINC000888733009   -0.1500
      2 C2          3.2107    1.3460   47.3735 C.3     1  ZINC000888733009    0.0700
      3 H3          4.1937    1.6665   47.0284 H       1  ZINC000888733009    0.0700
      4 C4          3.3129    0.7232   48.7865 C.3     1  ZINC000888733009   -0.1300
      5 C5          2.9807    1.8931   49.7223 C.3     1  ZINC000888733009   -0.1100
      6 C6          1.9166    1.6163   50.7813 C.3     1  ZINC000888733009   -0.1300
      7 C7          2.7566    2.4934   51.7280 C.3     1  ZINC000888733009    0.1200
      8 N8          2.8439    1.9663   53.0921 N.am    1  ZINC000888733009   -0.7100
      9 C9          3.5745    2.6156   54.0200 C.2     1  ZINC000888733009    0.5900
     10 O10         4.1606    3.6408   53.7250 O.2     1  ZINC000888733009   -0.5600
     11 C11         3.6633    2.0872   55.3845 C.2     1  ZINC000888733009   -0.2400
     12 C12         2.5760    1.9060   56.2002 C.2     1  ZINC000888733009    0.0800
     13 N13         1.2685    2.1945   55.8458 N.am    1  ZINC000888733009   -0.6100
     14 C14         0.4227    2.7155   56.7566 C.2     1  ZINC000888733009    0.6000
     15 O15         0.8082    2.9341   57.8901 O.2     1  ZINC000888733009   -0.4900
     16 C16        -0.9616    3.0192   56.3820 C.2     1  ZINC000888733009   -0.0900
     17 C17        -1.9113    3.5684   57.1957 C.2     1  ZINC000888733009   -0.1000
     18 C18        -3.0819    3.6821   56.4298 C.2     1  ZINC000888733009   -0.2300
     19 C19        -2.7994    3.2036   55.1979 C.2     1  ZINC000888733009    0.0100
     20 O20        -1.5194    2.8104   55.1714 O.3     1  ZINC000888733009   -0.1600
     21 S21         3.0546    1.2765   57.7102 S.3     1  ZINC000888733009    0.3000
     22 C22         4.7478    1.2510   57.2505 C.2     1  ZINC000888733009   -0.2800
     23 C23         4.9063    1.6957   56.0121 C.2     1  ZINC000888733009   -0.0900
     24 C24         3.9747    2.1436   50.8534 C.3     1  ZINC000888733009   -0.1400
     25 C25         2.7074    3.0851   48.7953 C.3     1  ZINC000888733009    0.0700
     26 O26         2.3364    2.4860   47.5305 O.3     1  ZINC000888733009   -0.3700
     27 H27         2.5143    0.8034   45.4084 H       1  ZINC000888733009    0.0600
     28 H28         3.2493   -0.5347   46.3236 H       1  ZINC000888733009    0.0700
     29 H29         1.6177    0.0398   46.7431 H       1  ZINC000888733009    0.0600
     30 H30         2.5860   -0.0805   48.9047 H       1  ZINC000888733009    0.0800
     31 H31         4.3230    0.3583   48.9725 H       1  ZINC000888733009    0.0800
     32 H32         0.9410    2.0398   50.5427 H       1  ZINC000888733009    0.0800
     33 H33         1.8634    0.5709   51.0852 H       1  ZINC000888733009    0.0900
     34 H34         2.4862    3.5489   51.6991 H       1  ZINC000888733009    0.1200
     35 H35         2.3758    1.1500   53.3275 H       1  ZINC000888733009    0.4000
     36 H36         0.9616    2.0214   54.9421 H       1  ZINC000888733009    0.4400
     37 H37        -1.7858    3.8586   58.2283 H       1  ZINC000888733009    0.1700
     38 H38        -4.0304    4.0775   56.7625 H       1  ZINC000888733009    0.1600
     39 H39        -3.4908    3.1510   54.3699 H       1  ZINC000888733009    0.2200
     40 H40         5.5513    0.9145   57.8887 H       1  ZINC000888733009    0.1700
     41 H41         5.8671    1.7662   55.5239 H       1  ZINC000888733009    0.1500
     42 H42         4.5035    1.2473   51.1777 H       1  ZINC000888733009    0.0900
     43 H43         4.6403    2.9877   50.6722 H       1  ZINC000888733009    0.0800
     44 H44         1.8887    3.6900   49.1849 H       1  ZINC000888733009    0.0900
     45 H45         3.6065    3.6900   48.6785 H       1  ZINC000888733009    0.0700
@<TRIPOS>BOND
     1     1     2    1
     2     1    27    1
     3     1    28    1
     4     1    29    1
     5     2     3    1
     6     2    26    1
     7     2     4    1
     8     4     5    1
     9     4    30    1
    10     4    31    1
    11     5    24    1
    12     5     6    1
    13     5    25    1
    14     6     7    1
    15     6    32    1
    16     6    33    1
    17     7     8    1
    18     7    24    1
    19     7    34    1
    20     8     9   am
    21     8    35    1
    22     9    10    2
    23     9    11    1
    24    11    23    1
    25    11    12    2
    26    12    13    1
    27    12    21    1
    28    13    14   am
    29    13    36    1
    30    14    15    2
    31    14    16    1
    32    16    20    1
    33    16    17    2
    34    17    18    1
    35    17    37    1
    36    18    19    2
    37    18    38    1
    38    19    20    1
    39    19    39    1
    40    21    22    1
    41    22    23    2
    42    22    40    1
    43    23    41    1
    44    24    42    1
    45    24    43    1
    46    25    26    1
    47    25    44    1
    48    25    45    1
@<TRIPOS>SUBSTRUCTURE
     1 ZINC000888733009        1 TEMP              0 ****  ****    0 ROOT


##########                                Name:    ZINC000845755710
##########                DOCK_Rotatable_Bonds:                   3
##########                         Heavy_Atoms:                  24
##########                    Molecular_Weight:             349.814
##########                DOCK_Rotatable_Bonds:                   3
##########                       Formal_Charge:         -0.00999974
##########                     HBond_Acceptors:                   6
##########                        HBond_Donors:                   0
##########                         Heavy_Atoms:                  24
##########                          Grid_Score:          -24.634043
##########                     Grid_vdw_energy:          -24.499537
##########                      Grid_es_energy:           -0.134507
##########           Internal_energy_repulsive:           22.618818

@<TRIPOS>MOLECULE
ZINC000845755710
 44 47 1 0 0
SMALL
USER_CHARGES


@<TRIPOS>ATOM
      1 C1          0.9496    2.3996   57.9113 C.3     1  ZINC000845755710   -0.1700
      2 C2         -0.1436    2.9715   58.8163 C.3     1  ZINC000845755710    0.2600
      3 C3         -1.0982    3.8332   57.9875 C.3     1  ZINC000845755710   -0.0900
      4 C4         -0.3159    4.9721   57.3294 C.3     1  ZINC000845755710   -0.1300
      5 C5         -1.2803    5.8527   56.5287 C.3     1  ZINC000845755710    0.1100
      6 N6         -2.0213    5.0053   55.5845 N.am    1  ZINC000845755710   -0.6000
      7 C7         -2.0453    5.3005   54.2697 C.2     1  ZINC000845755710    0.5900
      8 O8         -1.4496    6.2767   53.8546 O.2     1  ZINC000845755710   -0.5200
      9 C9         -2.7915    4.4427   53.3368 C.2     1  ZINC000845755710   -0.2200
     10 C10        -4.1264    4.1800   53.3511 C.2     1  ZINC000845755710    0.0600
     11 O11        -4.4384    3.3561   52.3440 O.3     1  ZINC000845755710   -0.1800
     12 C12        -3.3477    3.0321   51.6186 C.ar    1  ZINC000845755710    0.0500
     13 C13        -3.1548    2.2284   50.5020 C.ar    1  ZINC000845755710   -0.0900
     14 C14        -1.8923    2.0829   49.9674 C.ar    1  ZINC000845755710   -0.0800
     15 C15        -0.8053    2.7327   50.5341 C.ar    1  ZINC000845755710   -0.0400
     16 Cl16        0.7763    2.5358   49.8457 Cl      1  ZINC000845755710   -0.0600
     17 C17        -0.9780    3.5354   51.6431 C.ar    1  ZINC000845755710   -0.0500
     18 C18        -2.2484    3.6928   52.1864 C.ar    1  ZINC000845755710   -0.0900
     19 C19        -2.7352    3.8295   56.1007 C.3     1  ZINC000845755710    0.1000
     20 C20        -1.7545    2.9716   56.9063 C.3     1  ZINC000845755710   -0.1300
     21 O21        -0.8758    1.8961   59.4278 O.3     1  ZINC000845755710   -0.3700
     22 C22        -0.2530    1.7132   60.7221 C.3     1  ZINC000845755710    0.0100
     23 C23         0.0989    3.1708   61.1108 C.3     1  ZINC000845755710    0.0200
     24 O24         0.4531    3.7689   59.8476 O.3     1  ZINC000845755710   -0.3800
     25 H25         1.6312    1.7907   58.5052 H       1  ZINC000845755710    0.0600
     26 H26         0.4940    1.7838   57.1359 H       1  ZINC000845755710    0.0800
     27 H27         1.5023    3.2171   57.4482 H       1  ZINC000845755710    0.0800
     28 H28        -1.8681    4.2496   58.6370 H       1  ZINC000845755710    0.0900
     29 H29         0.1704    5.5716   58.0991 H       1  ZINC000845755710    0.0800
     30 H30         0.4380    4.5567   56.6607 H       1  ZINC000845755710    0.0800
     31 H31        -1.9793    6.3405   57.2080 H       1  ZINC000845755710    0.0700
     32 H32        -0.7162    6.6059   55.9786 H       1  ZINC000845755710    0.1000
     33 H33        -4.8293    4.5771   54.0684 H       1  ZINC000845755710    0.2200
     34 H34        -3.9936    1.7172   50.0531 H       1  ZINC000845755710    0.1500
     35 H35        -1.7480    1.4569   49.0992 H       1  ZINC000845755710    0.1500
     36 H36        -0.1320    4.0413   52.0845 H       1  ZINC000845755710    0.1400
     37 H37        -3.5529    4.1522   56.7452 H       1  ZINC000845755710    0.0800
     38 H38        -3.1311    3.2477   55.2684 H       1  ZINC000845755710    0.0900
     39 H39        -0.9870    2.5750   56.2415 H       1  ZINC000845755710    0.0700
     40 H40        -2.2920    2.1472   57.3747 H       1  ZINC000845755710    0.0800
     41 H41        -0.9539    1.2777   61.4342 H       1  ZINC000845755710    0.1100
     42 H42         0.6466    1.1032   60.6396 H       1  ZINC000845755710    0.0800
     43 H43        -0.7653    3.6728   61.5459 H       1  ZINC000845755710    0.0800
     44 H44         0.9447    3.1927   61.7980 H       1  ZINC000845755710    0.1000
@<TRIPOS>BOND
     1     1     2    1
     2     1    25    1
     3     1    26    1
     4     1    27    1
     5     2    24    1
     6     2     3    1
     7     2    21    1
     8     3    20    1
     9     3     4    1
    10     3    28    1
    11     4     5    1
    12     4    29    1
    13     4    30    1
    14     5     6    1
    15     5    31    1
    16     5    32    1
    17     6     7   am
    18     6    19    1
    19     7     8    2
    20     7     9    1
    21     9    18    1
    22     9    10    2
    23    10    11    1
    24    10    33    1
    25    11    12    1
    26    12    18   ar
    27    12    13   ar
    28    13    14   ar
    29    13    34    1
    30    14    15   ar
    31    14    35    1
    32    15    16    1
    33    15    17   ar
    34    17    18   ar
    35    17    36    1
    36    19    20    1
    37    19    37    1
    38    19    38    1
    39    20    39    1
    40    20    40    1
    41    21    22    1
    42    22    23    1
    43    22    41    1
    44    22    42    1
    45    23    24    1
    46    23    43    1
    47    23    44    1
@<TRIPOS>SUBSTRUCTURE
     1 ZINC000845755710        1 TEMP              0 ****  ****    0 ROOT


##########                                Name:    ZINC000794876634
##########                DOCK_Rotatable_Bonds:                   4
##########                         Heavy_Atoms:                  24
##########                    Molecular_Weight:             389.249
##########                DOCK_Rotatable_Bonds:                   4
##########                       Formal_Charge:        -4.47035e-08
##########                     HBond_Acceptors:                   5
##########                        HBond_Donors:                   0
##########                         Heavy_Atoms:                  24
##########                          Grid_Score:          -24.527317
##########                     Grid_vdw_energy:          -24.994352
##########                      Grid_es_energy:            0.467036
##########           Internal_energy_repulsive:           56.345699

@<TRIPOS>MOLECULE
ZINC000794876634
 41 43 1 0 0
SMALL
USER_CHARGES


@<TRIPOS>ATOM
      1 C1        -10.3211    2.9333   53.4816 C.3     1  ZINC000794876634    0.0200
      2 O2         -9.6023    4.0086   52.8742 O.3     1  ZINC000794876634   -0.3000
      3 C3         -8.3917    3.7135   52.3341 C.ar    1  ZINC000794876634    0.1300
      4 C4         -7.9233    2.4063   52.3583 C.ar    1  ZINC000794876634   -0.1800
      5 C5         -6.6963    2.1003   51.8129 C.ar    1  ZINC000794876634   -0.0400
      6 C6         -6.1918    0.6805   51.8411 C.3     1  ZINC000794876634   -0.1200
      7 C7         -5.9176    3.1095   51.2314 C.ar    1  ZINC000794876634   -0.1000
      8 C8         -4.6114    2.7873   50.6496 C.2     1  ZINC000794876634    0.0600
      9 C9         -3.4670    3.1643   51.2909 C.2     1  ZINC000794876634   -0.1700
     10 C10        -3.3505    3.8949   52.5646 C.2     1  ZINC000794876634    0.5700
     11 O11        -4.2755    4.2821   53.2552 O.2     1  ZINC000794876634   -0.4900
     12 N12        -2.0437    4.0583   52.8303 N.am    1  ZINC000794876634   -0.5300
     13 C13        -1.5235    4.7417   54.0172 C.3     1  ZINC000794876634    0.0800
     14 C14        -1.2487    3.4989   51.8419 C.ar    1  ZINC000794876634    0.3700
     15 N15         0.0701    3.4332   51.7075 N.ar    1  ZINC000794876634   -0.4900
     16 C16         0.6364    2.8456   50.6730 C.ar    1  ZINC000794876634    0.1800
     17 C17        -0.1174    2.2641   49.6691 C.ar    1  ZINC000794876634   -0.1800
     18 Br18        0.7276    1.4282   48.1983 Br      1  ZINC000794876634   -0.0200
     19 C19        -1.5016    2.3020   49.7561 C.ar    1  ZINC000794876634    0.0000
     20 C20        -2.0717    2.9233   50.8623 C.ar    1  ZINC000794876634   -0.1400
     21 C21        -6.3922    4.4286   51.2075 C.ar    1  ZINC000794876634   -0.1400
     22 C22        -7.6252    4.7238   51.7520 C.ar    1  ZINC000794876634    0.0900
     23 O23        -8.0891    6.0020   51.7303 O.3     1  ZINC000794876634   -0.3000
     24 C24        -9.3680    6.2382   52.3226 C.3     1  ZINC000794876634    0.0200
     25 H25       -11.2686    3.3045   53.8720 H       1  ZINC000794876634    0.1000
     26 H26       -10.5126    2.1589   52.7387 H       1  ZINC000794876634    0.0600
     27 H27        -9.7304    2.5163   54.2973 H       1  ZINC000794876634    0.0600
     28 H28        -8.5228    1.6277   52.8063 H       1  ZINC000794876634    0.1400
     29 H29        -6.5178    0.1611   50.9401 H       1  ZINC000794876634    0.0800
     30 H30        -5.1027    0.6828   51.8853 H       1  ZINC000794876634    0.0700
     31 H31        -6.5899    0.1708   52.7186 H       1  ZINC000794876634    0.0700
     32 H32        -4.5545    2.2517   49.7136 H       1  ZINC000794876634    0.1500
     33 H33        -2.3552    5.0864   54.6316 H       1  ZINC000794876634    0.0900
     34 H34        -0.9078    4.0510   54.5935 H       1  ZINC000794876634    0.0800
     35 H35        -0.9205    5.5959   53.7095 H       1  ZINC000794876634    0.0800
     36 H36         1.7140    2.8174   50.6070 H       1  ZINC000794876634    0.1800
     37 H37        -2.1187    1.8579   48.9890 H       1  ZINC000794876634    0.1600
     38 H38        -5.7962    5.2106   50.7606 H       1  ZINC000794876634    0.1400
     39 H39       -10.1342    5.7099   51.7552 H       1  ZINC000794876634    0.0500
     40 H40        -9.3641    5.8778   53.3512 H       1  ZINC000794876634    0.0600
     41 H41        -9.5810    7.3072   52.3129 H       1  ZINC000794876634    0.1100
@<TRIPOS>BOND
     1     1     2    1
     2     1    25    1
     3     1    26    1
     4     1    27    1
     5     2     3    1
     6     3    22   ar
     7     3     4   ar
     8     4     5   ar
     9     4    28    1
    10     5     6    1
    11     5     7   ar
    12     6    29    1
    13     6    30    1
    14     6    31    1
    15     7     8    1
    16     7    21   ar
    17     8     9    2
    18     8    32    1
    19     9    20    1
    20     9    10    1
    21    10    11    2
    22    10    12   am
    23    12    13    1
    24    12    14    1
    25    13    33    1
    26    13    34    1
    27    13    35    1
    28    14    20   ar
    29    14    15   ar
    30    15    16   ar
    31    16    17   ar
    32    16    36    1
    33    17    18    1
    34    17    19   ar
    35    19    20   ar
    36    19    37    1
    37    21    22   ar
    38    21    38    1
    39    22    23    1
    40    23    24    1
    41    24    39    1
    42    24    40    1
    43    24    41    1
@<TRIPOS>SUBSTRUCTURE
     1 ZINC000794876634        1 TEMP              0 ****  ****    0 ROOT


##########                                Name:    ZINC000836820897
##########                DOCK_Rotatable_Bonds:                   5
##########                         Heavy_Atoms:                  22
##########                    Molecular_Weight:             330.355
##########                DOCK_Rotatable_Bonds:                   5
##########                       Formal_Charge:          -0.0200003
##########                     HBond_Acceptors:                   8
##########                        HBond_Donors:                   1
##########                         Heavy_Atoms:                  22
##########                          Grid_Score:          -24.469156
##########                     Grid_vdw_energy:          -24.723667
##########                      Grid_es_energy:            0.254510
##########           Internal_energy_repulsive:            5.688636

@<TRIPOS>MOLECULE
ZINC000836820897
 38 40 1 0 0
SMALL
USER_CHARGES


@<TRIPOS>ATOM
      1 O1         -9.7939   -0.4889   64.0808 O.2     1  ZINC000836820897   -0.5200
      2 C2         -9.0699    0.4534   63.8245 C.2     1  ZINC000836820897    0.5800
      3 C3         -9.1772    1.1332   62.5173 C.ar    1  ZINC000836820897   -0.1600
      4 C4         -9.9293    2.3033   62.3958 C.ar    1  ZINC000836820897   -0.0100
      5 C5        -10.0256    2.9339   61.1736 C.ar    1  ZINC000836820897   -0.1700
      6 C6         -9.3775    2.4083   60.0666 C.ar    1  ZINC000836820897    0.2200
      7 F7         -9.4751    3.0303   58.8712 F       1  ZINC000836820897   -0.1100
      8 C8         -8.6288    1.2467   60.1819 C.ar    1  ZINC000836820897   -0.7200
      9 S9         -7.8073    0.5861   58.7699 S.o2    1  ZINC000836820897    2.7000
     10 O10        -7.1992    1.6867   58.1081 O.2     1  ZINC000836820897   -0.9400
     11 O11        -7.0794   -0.5471   59.2228 O.2     1  ZINC000836820897   -0.9400
     12 N12        -8.9762    0.0128   57.7464 N.am    1  ZINC000836820897   -1.0800
     13 C13        -9.8889   -1.0419   58.1944 C.3     1  ZINC000836820897    0.0700
     14 C14       -11.2696   -0.6149   58.6968 C.3     1  ZINC000836820897   -0.1800
     15 C15       -11.1304   -1.3109   57.3416 C.3     1  ZINC000836820897   -0.1900
     16 C16        -8.5218    0.6109   61.4000 C.ar    1  ZINC000836820897    0.0600
     17 N17        -8.1732    0.8815   64.7351 N.am    1  ZINC000836820897   -0.6200
     18 C18        -7.9575    0.2959   66.0663 C.3     1  ZINC000836820897    0.0900
     19 C19        -6.8197    1.0929   66.7386 C.3     1  ZINC000836820897   -0.1600
     20 C20        -6.0742    1.7202   65.5310 C.3     1  ZINC000836820897    0.0800
     21 H21        -5.3731    1.0099   65.0929 H       1  ZINC000836820897    0.1100
     22 F22        -5.4217    2.9005   65.9027 F       1  ZINC000836820897   -0.1900
     23 C23        -7.2419    2.0107   64.5588 C.3     1  ZINC000836820897    0.0800
     24 H24       -10.4348    2.7134   63.2575 H       1  ZINC000836820897    0.1500
     25 H25       -10.6074    3.8389   61.0784 H       1  ZINC000836820897    0.1600
     26 H26        -9.0564    0.3753   56.8503 H       1  ZINC000836820897    0.4200
     27 H27        -9.4179   -1.8959   58.6810 H       1  ZINC000836820897    0.1400
     28 H28       -11.7070   -1.1879   59.5144 H       1  ZINC000836820897    0.1100
     29 H29       -11.4987    0.4508   58.6941 H       1  ZINC000836820897    0.1000
     30 H30       -11.2680   -0.7033   56.4471 H       1  ZINC000836820897    0.1000
     31 H31       -11.4762   -2.3420   57.2673 H       1  ZINC000836820897    0.1000
     32 H32        -7.9383   -0.2936   61.4887 H       1  ZINC000836820897    0.1600
     33 H33        -8.8683    0.3780   66.6594 H       1  ZINC000836820897    0.0800
     34 H34        -7.6694   -0.7508   65.9686 H       1  ZINC000836820897    0.0800
     35 H35        -7.2241    1.8694   67.3878 H       1  ZINC000836820897    0.0900
     36 H36        -6.1600    0.4278   67.2958 H       1  ZINC000836820897    0.1000
     37 H37        -6.8793    2.0510   63.5317 H       1  ZINC000836820897    0.1000
     38 H38        -7.7336    2.9462   64.8254 H       1  ZINC000836820897    0.0900
@<TRIPOS>BOND
     1     1     2    2
     2     2     3    1
     3     2    17   am
     4     3    16   ar
     5     3     4   ar
     6     4     5   ar
     7     4    24    1
     8     5     6   ar
     9     5    25    1
    10     6     7    1
    11     6     8   ar
    12     8     9    1
    13     8    16   ar
    14     9    10    2
    15     9    11    2
    16     9    12   am
    17    12    13    1
    18    12    26    1
    19    13    15    1
    20    13    14    1
    21    13    27    1
    22    14    15    1
    23    14    28    1
    24    14    29    1
    25    15    30    1
    26    15    31    1
    27    16    32    1
    28    17    23    1
    29    17    18    1
    30    18    19    1
    31    18    33    1
    32    18    34    1
    33    19    20    1
    34    19    35    1
    35    19    36    1
    36    20    21    1
    37    20    22    1
    38    20    23    1
    39    23    37    1
    40    23    38    1
@<TRIPOS>SUBSTRUCTURE
     1 ZINC000836820897        1 TEMP              0 ****  ****    0 ROOT


##########                                Name:    ZINC000375477402
##########                DOCK_Rotatable_Bonds:                   5
##########                         Heavy_Atoms:                  26
##########                    Molecular_Weight:             378.342
##########                DOCK_Rotatable_Bonds:                   5
##########                       Formal_Charge:         -1.2666e-07
##########                     HBond_Acceptors:                   9
##########                        HBond_Donors:                   1
##########                         Heavy_Atoms:                  26
##########                          Grid_Score:          -24.429918
##########                     Grid_vdw_energy:          -24.261051
##########                      Grid_es_energy:           -0.168867
##########           Internal_energy_repulsive:           10.533716

@<TRIPOS>MOLECULE
ZINC000375477402
 45 47 1 0 0
SMALL
USER_CHARGES


@<TRIPOS>ATOM
      1 O1          0.7508    5.2300   52.2441 O.2     1  ZINC000375477402   -0.5600
      2 C2          0.5492    4.1741   51.6758 C.2     1  ZINC000375477402    0.7200
      3 N3         -0.6772    3.6161   51.7058 N.am    1  ZINC000375477402   -0.7300
      4 C4         -1.7660    4.2788   52.4281 C.3     1  ZINC000375477402    0.1800
      5 H5         -1.6723    5.3589   52.3154 H       1  ZINC000375477402    0.1500
      6 C6         -3.0895    3.8279   51.8658 C.ar    1  ZINC000375477402   -0.1300
      7 C7         -3.2111    2.5681   51.3103 C.ar    1  ZINC000375477402   -0.0800
      8 C8         -4.4246    2.1530   50.7939 C.ar    1  ZINC000375477402   -0.0900
      9 C9         -5.5185    2.9969   50.8320 C.ar    1  ZINC000375477402   -0.1100
     10 C10        -5.3999    4.2590   51.3875 C.ar    1  ZINC000375477402    0.0800
     11 F11        -6.4688    5.0845   51.4252 F       1  ZINC000375477402   -0.1200
     12 C12        -4.1845    4.6732   51.9106 C.ar    1  ZINC000375477402    0.1000
     13 F13        -4.0663    5.9047   52.4533 F       1  ZINC000375477402   -0.1100
     14 C14        -1.6909    3.9125   53.9117 C.3     1  ZINC000375477402    0.4400
     15 F15        -2.2168    2.6303   54.1027 F       1  ZINC000375477402   -0.1600
     16 F16        -0.3564    3.9364   54.3310 F       1  ZINC000375477402   -0.1700
     17 F17        -2.4309    4.8359   54.6581 F       1  ZINC000375477402   -0.1800
     18 N18         1.5509    3.5645   51.0114 N.am    1  ZINC000375477402   -0.6300
     19 C19         2.9347    4.0618   50.8970 C.3     1  ZINC000375477402    0.1000
     20 C20         3.7903    2.7994   50.6185 C.3     1  ZINC000375477402   -0.1200
     21 C21         2.8411    1.9750   49.7205 C.3     1  ZINC000375477402   -0.1100
     22 C22         1.4471    2.2886   50.2848 C.3     1  ZINC000375477402    0.1400
     23 C23         2.9580    2.4324   48.2719 C.3     1  ZINC000375477402   -0.1100
     24 C24         2.0561    1.5571   47.3939 C.3     1  ZINC000375477402   -0.1600
     25 C25         2.4355    0.0876   47.5961 C.3     1  ZINC000375477402    0.0600
     26 O26         2.2971   -0.2552   48.9767 O.3     1  ZINC000375477402   -0.3800
     27 C27         3.1505    0.4898   49.8500 C.3     1  ZINC000375477402    0.0800
     28 H28        -0.8390    2.7758   51.2491 H       1  ZINC000375477402    0.4000
     29 H29        -2.3574    1.9075   51.2794 H       1  ZINC000375477402    0.1400
     30 H30        -4.5177    1.1684   50.3600 H       1  ZINC000375477402    0.1500
     31 H31        -6.4658    2.6716   50.4280 H       1  ZINC000375477402    0.1500
     32 H32         3.0172    4.7660   50.0690 H       1  ZINC000375477402    0.0700
     33 H33         3.2465    4.5330   51.8291 H       1  ZINC000375477402    0.0700
     34 H34         4.7059    3.0574   50.0863 H       1  ZINC000375477402    0.0900
     35 H35         4.0142    2.2671   51.5429 H       1  ZINC000375477402    0.0800
     36 H36         1.1333    1.4938   50.9616 H       1  ZINC000375477402    0.0800
     37 H37         0.7308    2.3896   49.4695 H       1  ZINC000375477402    0.0700
     38 H38         2.6447    3.4734   48.1921 H       1  ZINC000375477402    0.0700
     39 H39         3.9923    2.3359   47.9418 H       1  ZINC000375477402    0.0700
     40 H40         1.0144    1.7070   47.6777 H       1  ZINC000375477402    0.0700
     41 H41         2.1926    1.8280   46.3470 H       1  ZINC000375477402    0.0800
     42 H42         1.7781   -0.5429   46.9976 H       1  ZINC000375477402    0.1000
     43 H43         3.4687   -0.0668   47.2854 H       1  ZINC000375477402    0.0500
     44 H44         4.1913    0.3110   49.5801 H       1  ZINC000375477402    0.0600
     45 H45         2.9830    0.1724   50.8792 H       1  ZINC000375477402    0.1000
@<TRIPOS>BOND
     1     1     2    2
     2     2     3   am
     3     2    18   am
     4     3     4    1
     5     3    28    1
     6     4     5    1
     7     4     6    1
     8     4    14    1
     9     6    12   ar
    10     6     7   ar
    11     7     8   ar
    12     7    29    1
    13     8     9   ar
    14     8    30    1
    15     9    10   ar
    16     9    31    1
    17    10    11    1
    18    10    12   ar
    19    12    13    1
    20    14    15    1
    21    14    16    1
    22    14    17    1
    23    18    22    1
    24    18    19    1
    25    19    20    1
    26    19    32    1
    27    19    33    1
    28    20    21    1
    29    20    34    1
    30    20    35    1
    31    21    27    1
    32    21    22    1
    33    21    23    1
    34    22    36    1
    35    22    37    1
    36    23    24    1
    37    23    38    1
    38    23    39    1
    39    24    25    1
    40    24    40    1
    41    24    41    1
    42    25    26    1
    43    25    42    1
    44    25    43    1
    45    26    27    1
    46    27    44    1
    47    27    45    1
@<TRIPOS>SUBSTRUCTURE
     1 ZINC000375477402        1 TEMP              0 ****  ****    0 ROOT


##########                                Name:    ZINC000004040798
##########                DOCK_Rotatable_Bonds:                   3
##########                         Heavy_Atoms:                  22
##########                    Molecular_Weight:             361.151
##########                DOCK_Rotatable_Bonds:                   3
##########                       Formal_Charge:           0.0200003
##########                     HBond_Acceptors:                   6
##########                        HBond_Donors:                   1
##########                         Heavy_Atoms:                  22
##########                          Grid_Score:          -24.422655
##########                     Grid_vdw_energy:          -24.147657
##########                      Grid_es_energy:           -0.274998
##########           Internal_energy_repulsive:            2.274755

@<TRIPOS>MOLECULE
ZINC000004040798
 31 33 1 0 0
SMALL
USER_CHARGES


@<TRIPOS>ATOM
      1 O1         -5.9998    0.6752   52.1502 O.2     1  ZINC000004040798   -0.4800
      2 C2         -6.5771    1.7454   52.1931 C.2     1  ZINC000004040798    0.6100
      3 N3         -5.9174    2.8798   51.8861 N.am    1  ZINC000004040798   -0.6600
      4 C4         -4.5677    2.8276   51.5236 C.ar    1  ZINC000004040798    0.2300
      5 C5         -4.1956    2.2802   50.3030 C.ar    1  ZINC000004040798   -0.1300
      6 C6         -2.8615    2.2299   49.9479 C.ar    1  ZINC000004040798   -0.0100
      7 C7         -1.8967    2.7238   50.8063 C.ar    1  ZINC000004040798   -0.0600
      8 N8         -0.4684    2.6681   50.4220 N.pl3   1  ZINC000004040798    0.0300
      9 O9         -0.1441    2.1875   49.3509 O.2     1  ZINC000004040798   -0.1500
     10 O10         0.3828    3.1029   51.1771 O.2     1  ZINC000004040798   -0.1500
     11 C11        -2.2631    3.2703   52.0227 C.ar    1  ZINC000004040798    0.0000
     12 C12        -3.5960    3.3286   52.3820 C.ar    1  ZINC000004040798   -0.1400
     13 Br13       -4.0964    4.0759   54.0454 Br      1  ZINC000004040798    0.0000
     14 C14        -7.9952    1.8003   52.5739 C.2     1  ZINC000004040798   -0.0500
     15 C15        -8.7435    2.9319   52.6402 C.2     1  ZINC000004040798   -0.0800
     16 C16       -10.0803    2.5098   53.0571 C.ar    1  ZINC000004040798   -0.1500
     17 C17       -11.2804    3.1804   53.3031 C.ar    1  ZINC000004040798   -0.0500
     18 C18       -12.3840    2.4737   53.6910 C.ar    1  ZINC000004040798   -0.1400
     19 C19       -12.3192    1.0955   53.8421 C.ar    1  ZINC000004040798   -0.0700
     20 C20       -11.1444    0.4150   53.6042 C.ar    1  ZINC000004040798   -0.1100
     21 C21       -10.0090    1.1122   53.2082 C.ar    1  ZINC000004040798    0.0800
     22 O22        -8.7522    0.7332   52.9050 O.3     1  ZINC000004040798   -0.1900
     23 H23        -6.3789    3.7325   51.9163 H       1  ZINC000004040798    0.4300
     24 H24        -4.9485    1.8937   49.6320 H       1  ZINC000004040798    0.1800
     25 H25        -2.5718    1.8038   48.9988 H       1  ZINC000004040798    0.1700
     26 H26        -1.5070    3.6553   52.6910 H       1  ZINC000004040798    0.1700
     27 H27        -8.4173    3.9395   52.4285 H       1  ZINC000004040798    0.1800
     28 H28       -11.3361    4.2528   53.1877 H       1  ZINC000004040798    0.1400
     29 H29       -13.3125    2.9911   53.8816 H       1  ZINC000004040798    0.1400
     30 H30       -13.1992    0.5503   54.1499 H       1  ZINC000004040798    0.1400
     31 H31       -11.1062   -0.6575   53.7248 H       1  ZINC000004040798    0.1400
@<TRIPOS>BOND
     1     1     2    2
     2     2     3   am
     3     2    14    1
     4     3     4    1
     5     3    23    1
     6     4    12   ar
     7     4     5   ar
     8     5     6   ar
     9     5    24    1
    10     6     7   ar
    11     6    25    1
    12     7     8    1
    13     7    11   ar
    14     8     9    2
    15     8    10    2
    16    11    12   ar
    17    11    26    1
    18    12    13    1
    19    14    22    1
    20    14    15    2
    21    15    16    1
    22    15    27    1
    23    16    21   ar
    24    16    17   ar
    25    17    18   ar
    26    17    28    1
    27    18    19   ar
    28    18    29    1
    29    19    20   ar
    30    19    30    1
    31    20    21   ar
    32    20    31    1
    33    21    22    1
@<TRIPOS>SUBSTRUCTURE
     1 ZINC000004040798        1 TEMP              0 ****  ****    0 ROOT


##########                                Name:    ZINC000826052721
##########                DOCK_Rotatable_Bonds:                   3
##########                         Heavy_Atoms:                  29
##########                    Molecular_Weight:             393.399
##########                DOCK_Rotatable_Bonds:                   3
##########                       Formal_Charge:        -4.47035e-07
##########                     HBond_Acceptors:                   9
##########                        HBond_Donors:                   2
##########                         Heavy_Atoms:                  29
##########                          Grid_Score:          -24.295860
##########                     Grid_vdw_energy:          -21.334620
##########                      Grid_es_energy:           -2.961241
##########           Internal_energy_repulsive:           14.732386

@<TRIPOS>MOLECULE
ZINC000826052721
 46 50 1 0 0
SMALL
USER_CHARGES


@<TRIPOS>ATOM
      1 C1         -0.9339    1.7932   57.4775 C.3     1  ZINC000826052721   -0.0400
      2 N2         -0.1251    2.5232   56.4921 N.4     1  ZINC000826052721   -0.3800
      3 H3          0.3477    1.8661   55.8899 H       1  ZINC000826052721    0.4300
      4 C4          0.8644    3.3518   57.1868 C.3     1  ZINC000826052721    0.0500
      5 C5          1.6073    4.2221   56.2078 C.ar    1  ZINC000826052721   -0.1300
      6 C6          2.8185    4.7733   56.5973 C.ar    1  ZINC000826052721   -0.1000
      7 C7          3.5277    5.5817   55.7313 C.ar    1  ZINC000826052721   -0.1000
      8 C8          3.0290    5.8437   54.4692 C.ar    1  ZINC000826052721   -0.0800
      9 C9          1.8235    5.2944   54.0790 C.ar    1  ZINC000826052721   -0.0800
     10 C10         1.1118    4.4820   54.9473 C.ar    1  ZINC000826052721   -0.1200
     11 C11        -0.1982    3.8989   54.4822 C.3     1  ZINC000826052721    0.1100
     12 H12        -0.0045    3.0697   53.8018 H       1  ZINC000826052721    0.1100
     13 N13        -0.9727    4.9333   53.7838 N.3     1  ZINC000826052721   -0.6200
     14 C14        -2.1139    4.3985   53.2154 C.ar    1  ZINC000826052721    0.1600
     15 C15        -3.3741    4.6158   53.7832 C.ar    1  ZINC000826052721   -0.0400
     16 C16        -3.5093    5.4272   55.0103 C.2     1  ZINC000826052721    0.0700
     17 N17        -2.6154    6.2891   55.5011 N.2     1  ZINC000826052721   -0.3800
     18 N18        -3.1136    6.7915   56.5789 N.2     1  ZINC000826052721   -0.1600
     19 N19        -4.2741    6.2774   56.7909 N.2     1  ZINC000826052721   -0.1700
     20 N20        -4.5471    5.4390   55.8504 N.pl3   1  ZINC000826052721   -0.3400
     21 C21        -4.5079    4.0598   53.1735 C.ar    1  ZINC000826052721    0.1800
     22 N22        -4.4177    3.3325   52.0887 N.ar    1  ZINC000826052721   -0.4700
     23 C23        -3.2411    3.0827   51.4986 C.ar    1  ZINC000826052721    0.0900
     24 C24        -3.1728    2.2962   50.3343 C.ar    1  ZINC000826052721    0.1700
     25 F25        -4.3007    1.7833   49.7960 F       1  ZINC000826052721   -0.1100
     26 C26        -1.9645    2.0540   49.7501 C.ar    1  ZINC000826052721   -0.1900
     27 C27        -0.7895    2.5739   50.2899 C.ar    1  ZINC000826052721    0.1300
     28 F28         0.3927    2.3163   49.6888 F       1  ZINC000826052721   -0.1300
     29 C29        -0.8194    3.3403   51.4190 C.ar    1  ZINC000826052721   -0.1500
     30 C30        -2.0455    3.6085   52.0436 C.ar    1  ZINC000826052721   -0.0600
     31 C31        -0.9945    3.3933   55.6859 C.3     1  ZINC000826052721    0.0000
     32 H32        -1.4469    2.5043   58.1250 H       1  ZINC000826052721    0.1200
     33 H33        -1.6693    1.1774   56.9595 H       1  ZINC000826052721    0.1300
     34 H34        -0.2857    1.1560   58.0790 H       1  ZINC000826052721    0.1200
     35 H35         1.5740    2.7062   57.7043 H       1  ZINC000826052721    0.1400
     36 H36         0.3563    3.9833   57.9156 H       1  ZINC000826052721    0.1400
     37 H37         3.2093    4.5690   57.5831 H       1  ZINC000826052721    0.1300
     38 H38         4.4707    6.0083   56.0395 H       1  ZINC000826052721    0.1300
     39 H39         3.5809    6.4763   53.7896 H       1  ZINC000826052721    0.1300
     40 H40         1.4340    5.4983   53.0926 H       1  ZINC000826052721    0.1400
     41 H41        -0.4086    5.4011   53.0903 H       1  ZINC000826052721    0.4100
     42 H42        -5.4795    4.2326   53.6123 H       1  ZINC000826052721    0.1800
     43 H43        -1.9174    1.4499   48.8561 H       1  ZINC000826052721    0.1600
     44 H44         0.0971    3.7379   51.8295 H       1  ZINC000826052721    0.1400
     45 H45        -1.3254    4.2399   56.2875 H       1  ZINC000826052721    0.1400
     46 H46        -1.8591    2.8262   55.3406 H       1  ZINC000826052721    0.1400
@<TRIPOS>BOND
     1     1     2    1
     2     1    32    1
     3     1    33    1
     4     1    34    1
     5     2     3    1
     6     2    31    1
     7     2     4    1
     8     4     5    1
     9     4    35    1
    10     4    36    1
    11     5    10   ar
    12     5     6   ar
    13     6     7   ar
    14     6    37    1
    15     7     8   ar
    16     7    38    1
    17     8     9   ar
    18     8    39    1
    19     9    10   ar
    20     9    40    1
    21    10    11    1
    22    11    12    1
    23    11    13    1
    24    11    31    1
    25    13    14    1
    26    13    41    1
    27    14    30   ar
    28    14    15   ar
    29    15    16    1
    30    15    21   ar
    31    16    20    1
    32    16    17    2
    33    17    18    1
    34    18    19    2
    35    19    20    1
    36    21    22   ar
    37    21    42    1
    38    22    23   ar
    39    23    30   ar
    40    23    24   ar
    41    24    25    1
    42    24    26   ar
    43    26    27   ar
    44    26    43    1
    45    27    28    1
    46    27    29   ar
    47    29    30   ar
    48    29    44    1
    49    31    45    1
    50    31    46    1
@<TRIPOS>SUBSTRUCTURE
     1 ZINC000826052721        1 TEMP              0 ****  ****    0 ROOT


##########                                Name:    ZINC000876376999
##########                DOCK_Rotatable_Bonds:                   7
##########                         Heavy_Atoms:                  24
##########                    Molecular_Weight:             358.502
##########                DOCK_Rotatable_Bonds:                   7
##########                       Formal_Charge:          -0.0299994
##########                     HBond_Acceptors:                   7
##########                        HBond_Donors:                   2
##########                         Heavy_Atoms:                  24
##########                          Grid_Score:          -24.149940
##########                     Grid_vdw_energy:          -22.122421
##########                      Grid_es_energy:           -2.027518
##########           Internal_energy_repulsive:           32.140629

@<TRIPOS>MOLECULE
ZINC000876376999
 54 56 1 0 0
SMALL
USER_CHARGES


@<TRIPOS>ATOM
      1 C1         -3.6209    2.9434   50.9768 C.3     1  ZINC000876376999   -0.1500
      2 C2         -4.6514    2.0681   51.6929 C.3     1  ZINC000876376999   -0.1100
      3 C3         -5.8678    2.9163   52.0689 C.3     1  ZINC000876376999   -0.0700
      4 C4         -5.4304    4.0559   52.9913 C.3     1  ZINC000876376999    0.0900
      5 O5         -4.5614    3.5429   54.0030 O.3     1  ZINC000876376999   -0.5600
      6 C6         -6.4969    3.4978   50.8007 C.3     1  ZINC000876376999   -0.1100
      7 C7         -7.6942    4.3731   51.1781 C.3     1  ZINC000876376999   -0.1400
      8 C8         -8.7451    3.5147   51.8892 C.3     1  ZINC000876376999    0.1100
      9 N9         -8.1104    2.8369   53.0278 N.am    1  ZINC000876376999   -0.6300
     10 C10        -8.6304    2.9424   54.2667 C.2     1  ZINC000876376999    0.7100
     11 O11        -9.6341    3.6034   54.4506 O.2     1  ZINC000876376999   -0.5800
     12 N12        -8.0375    2.3152   55.3020 N.am    1  ZINC000876376999   -0.7500
     13 C13        -8.6026    2.4298   56.6487 C.3     1  ZINC000876376999    0.1400
     14 C14        -8.5877    1.0551   57.3281 C.3     1  ZINC000876376999   -0.1100
     15 C15        -7.8115    1.1149   58.6155 C.3     1  ZINC000876376999   -0.1100
     16 C16        -8.6443    1.2483   59.8958 C.3     1  ZINC000876376999   -0.5200
     17 H17        -8.0386    1.3166   60.8101 H       1  ZINC000876376999    0.1500
     18 C18        -9.5972    2.4510   59.7085 C.3     1  ZINC000876376999   -0.1200
     19 C19       -10.8434    2.0508   58.9261 C.3     1  ZINC000876376999   -0.1200
     20 C20       -10.8045    0.5544   58.5396 C.3     1  ZINC000876376999   -0.5300
     21 H21       -11.8041    0.1074   58.4464 H       1  ZINC000876376999    0.1500
     22 C22        -9.9534    0.4268   57.2708 C.3     1  ZINC000876376999   -0.1000
     23 S23        -9.8034   -0.1825   59.8980 S.o2    1  ZINC000876376999    2.3700
     24 O24        -9.1406   -1.3525   59.4407 O.2     1  ZINC000876376999   -0.9300
     25 O25       -10.5542   -0.2024   61.1041 O.2     1  ZINC000876376999   -0.9300
     26 C26        -6.8980    2.0415   52.7902 C.3     1  ZINC000876376999    0.1400
     27 H27        -4.0360    3.2943   50.0321 H       1  ZINC000876376999    0.0500
     28 H28        -3.3722    3.7991   51.6045 H       1  ZINC000876376999    0.0600
     29 H29        -2.7204    2.3604   50.7838 H       1  ZINC000876376999    0.0500
     30 H30        -4.9628    1.2591   51.0321 H       1  ZINC000876376999    0.0600
     31 H31        -4.2074    1.6491   52.5959 H       1  ZINC000876376999    0.0700
     32 H32        -4.9039    4.8125   52.4096 H       1  ZINC000876376999    0.0500
     33 H33        -6.3081    4.5025   53.4585 H       1  ZINC000876376999    0.0400
     34 H34        -4.9529    2.8391   54.5381 H       1  ZINC000876376999    0.3800
     35 H35        -5.7583    4.1008   50.2726 H       1  ZINC000876376999    0.0700
     36 H36        -6.8303    2.6850   50.1552 H       1  ZINC000876376999    0.0700
     37 H37        -7.3658    5.1714   51.8435 H       1  ZINC000876376999    0.0700
     38 H38        -8.1275    4.8054   50.2762 H       1  ZINC000876376999    0.0800
     39 H39        -9.5546    4.1506   52.2476 H       1  ZINC000876376999    0.0700
     40 H40        -9.1403    2.7722   51.1962 H       1  ZINC000876376999    0.0700
     41 H41        -7.2366    1.7880   55.1553 H       1  ZINC000876376999    0.3900
     42 H42        -8.0076    3.1309   57.2340 H       1  ZINC000876376999    0.0800
     43 H43        -9.6289    2.7912   56.5825 H       1  ZINC000876376999    0.0700
     44 H44        -7.9542    0.4260   56.6408 H       1  ZINC000876376999    0.0900
     45 H45        -7.1857    0.2089   58.6974 H       1  ZINC000876376999    0.0900
     46 H46        -7.1036    1.9606   58.5680 H       1  ZINC000876376999    0.0900
     47 H47        -9.9068    2.8102   60.6948 H       1  ZINC000876376999    0.0800
     48 H48        -9.0813    3.2580   59.1965 H       1  ZINC000876376999    0.0900
     49 H49       -11.7207    2.2277   59.5560 H       1  ZINC000876376999    0.0800
     50 H50       -10.9334    2.6631   58.0336 H       1  ZINC000876376999    0.0900
     51 H51       -10.5142    0.8651   56.4269 H       1  ZINC000876376999    0.0900
     52 H52        -9.8436   -0.6449   57.0290 H       1  ZINC000876376999    0.0900
     53 H53        -7.1427    1.1788   52.1704 H       1  ZINC000876376999    0.0600
     54 H54        -6.4889    1.7053   53.7429 H       1  ZINC000876376999    0.1000
@<TRIPOS>BOND
     1     1     2    1
     2     1    27    1
     3     1    28    1
     4     1    29    1
     5     2     3    1
     6     2    30    1
     7     2    31    1
     8     3    26    1
     9     3     4    1
    10     3     6    1
    11     4     5    1
    12     4    32    1
    13     4    33    1
    14     5    34    1
    15     6     7    1
    16     6    35    1
    17     6    36    1
    18     7     8    1
    19     7    37    1
    20     7    38    1
    21     8     9    1
    22     8    39    1
    23     8    40    1
    24     9    10   am
    25     9    26    1
    26    10    11    2
    27    10    12   am
    28    12    13    1
    29    12    41    1
    30    13    14    1
    31    13    42    1
    32    13    43    1
    33    14    22    1
    34    14    15    1
    35    14    44    1
    36    15    16    1
    37    15    45    1
    38    15    46    1
    39    16    17    1
    40    16    23    1
    41    16    18    1
    42    18    19    1
    43    18    47    1
    44    18    48    1
    45    19    20    1
    46    19    49    1
    47    19    50    1
    48    20    21    1
    49    20    22    1
    50    20    23    1
    51    22    51    1
    52    22    52    1
    53    23    24    2
    54    23    25    2
    55    26    53    1
    56    26    54    1
@<TRIPOS>SUBSTRUCTURE
     1 ZINC000876376999        1 TEMP              0 ****  ****    0 ROOT


##########                                Name:    ZINC000331626032
##########                DOCK_Rotatable_Bonds:                   5
##########                         Heavy_Atoms:                  25
##########                    Molecular_Weight:              339.44
##########                DOCK_Rotatable_Bonds:                   5
##########                       Formal_Charge:        -2.16067e-07
##########                     HBond_Acceptors:                   6
##########                        HBond_Donors:                   2
##########                         Heavy_Atoms:                  25
##########                          Grid_Score:          -24.109207
##########                     Grid_vdw_energy:          -24.289474
##########                      Grid_es_energy:            0.180267
##########           Internal_energy_repulsive:           21.338261

@<TRIPOS>MOLECULE
ZINC000331626032
 50 52 1 0 0
SMALL
USER_CHARGES


@<TRIPOS>ATOM
      1 C1        -11.6891    2.2320   57.3866 C.3     1  ZINC000331626032   -0.2000
      2 C2        -11.4347    0.7471   57.1197 C.3     1  ZINC000331626032    0.0700
      3 H3        -10.4810    0.4569   57.5606 H       1  ZINC000331626032    0.1100
      4 C4        -12.5415   -0.0705   57.7340 C.2     1  ZINC000331626032    0.5200
      5 O5        -13.5831    0.4623   58.0540 O.2     1  ZINC000331626032   -0.5000
      6 N6        -12.3741   -1.3937   57.9277 N.am    1  ZINC000331626032   -0.5800
      7 C7        -11.1161   -2.0372   57.5412 C.3     1  ZINC000331626032    0.0800
      8 C8        -13.4019   -2.1528   58.4981 C.ar    1  ZINC000331626032    0.1400
      9 C9        -13.6856   -2.0336   59.8524 C.ar    1  ZINC000331626032   -0.1000
     10 C10       -14.7008   -2.7842   60.4124 C.ar    1  ZINC000331626032   -0.1100
     11 C11       -15.4339   -3.6541   59.6264 C.ar    1  ZINC000331626032   -0.1200
     12 C12       -15.1536   -3.7754   58.2777 C.ar    1  ZINC000331626032   -0.1100
     13 C13       -14.1442   -3.0226   57.7102 C.ar    1  ZINC000331626032   -0.1200
     14 N14       -11.3967    0.5095   55.6705 N.3     1  ZINC000331626032   -0.5100
     15 C15       -12.3495    1.3796   54.9695 C.3     1  ZINC000331626032    0.0500
     16 C16       -12.3883    1.0051   53.4862 C.3     1  ZINC000331626032   -0.1100
     17 C17       -10.9878    1.1640   52.8878 C.3     1  ZINC000331626032   -0.1100
     18 C18       -10.0059    0.2845   53.6667 C.3     1  ZINC000331626032   -0.0400
     19 H19       -10.2939   -0.7618   53.5638 H       1  ZINC000331626032    0.1000
     20 C20        -8.6145    0.4791   53.1215 C.ar    1  ZINC000331626032    0.2300
     21 C21        -8.0750   -0.4374   52.2329 C.ar    1  ZINC000331626032   -0.2900
     22 C22        -6.7917   -0.2210   51.7553 C.ar    1  ZINC000331626032    0.1900
     23 N23        -6.1244    0.8471   52.1594 N.ar    1  ZINC000331626032   -0.5700
     24 C24        -6.6694    1.7043   53.0103 C.ar    1  ZINC000331626032    0.5700
     25 N25        -5.9429    2.8118   53.4119 N.pl3   1  ZINC000331626032   -0.8200
     26 N26        -7.8953    1.5296   53.4812 N.ar    1  ZINC000331626032   -0.5700
     27 C27       -10.0361    0.6797   55.1448 C.3     1  ZINC000331626032    0.0700
     28 H28       -12.6428    2.5222   56.9457 H       1  ZINC000331626032    0.0700
     29 H29       -11.7173    2.4083   58.4619 H       1  ZINC000331626032    0.0800
     30 H30       -10.8885    2.8234   56.9422 H       1  ZINC000331626032    0.0700
     31 H31       -10.4217   -2.0114   58.3811 H       1  ZINC000331626032    0.0600
     32 H32       -11.3088   -3.0728   57.2608 H       1  ZINC000331626032    0.0800
     33 H33       -10.6816   -1.5062   56.6943 H       1  ZINC000331626032    0.0800
     34 H34       -13.1129   -1.3549   60.4670 H       1  ZINC000331626032    0.1200
     35 H35       -14.9218   -2.6920   61.4655 H       1  ZINC000331626032    0.1300
     36 H36       -16.2270   -4.2402   60.0667 H       1  ZINC000331626032    0.1300
     37 H37       -15.7276   -4.4561   57.6665 H       1  ZINC000331626032    0.1300
     38 H38       -13.9257   -3.1178   56.6568 H       1  ZINC000331626032    0.1200
     39 H39       -13.3422    1.2538   55.4018 H       1  ZINC000331626032    0.0900
     40 H40       -12.0372    2.4186   55.0737 H       1  ZINC000331626032    0.0300
     41 H41       -12.7139   -0.0297   53.3804 H       1  ZINC000331626032    0.0800
     42 H42       -13.0840    1.6613   52.9632 H       1  ZINC000331626032    0.0700
     43 H43       -11.0014    0.8570   51.8421 H       1  ZINC000331626032    0.0700
     44 H44       -10.6777    2.2066   52.9584 H       1  ZINC000331626032    0.0700
     45 H45        -8.6419   -1.3016   51.9195 H       1  ZINC000331626032    0.1400
     46 H46        -6.3420   -0.9163   51.0619 H       1  ZINC000331626032    0.1700
     47 H47        -5.0460    2.9533   53.0709 H       1  ZINC000331626032    0.4100
     48 H48        -6.3309    3.4466   54.0343 H       1  ZINC000331626032    0.4100
     49 H49        -9.7346    1.7222   55.2482 H       1  ZINC000331626032    0.0400
     50 H50        -9.3485    0.0457   55.7046 H       1  ZINC000331626032    0.0800
@<TRIPOS>BOND
     1     1     2    1
     2     1    28    1
     3     1    29    1
     4     1    30    1
     5     2     3    1
     6     2     4    1
     7     2    14    1
     8     4     5    2
     9     4     6   am
    10     6     7    1
    11     6     8    1
    12     7    31    1
    13     7    32    1
    14     7    33    1
    15     8    13   ar
    16     8     9   ar
    17     9    10   ar
    18     9    34    1
    19    10    11   ar
    20    10    35    1
    21    11    12   ar
    22    11    36    1
    23    12    13   ar
    24    12    37    1
    25    13    38    1
    26    14    27    1
    27    14    15    1
    28    15    16    1
    29    15    39    1
    30    15    40    1
    31    16    17    1
    32    16    41    1
    33    16    42    1
    34    17    18    1
    35    17    43    1
    36    17    44    1
    37    18    19    1
    38    18    20    1
    39    18    27    1
    40    20    26   ar
    41    20    21   ar
    42    21    22   ar
    43    21    45    1
    44    22    23   ar
    45    22    46    1
    46    23    24   ar
    47    24    25    1
    48    24    26   ar
    49    25    47    1
    50    25    48    1
    51    27    49    1
    52    27    50    1
@<TRIPOS>SUBSTRUCTURE
     1 ZINC000331626032        1 TEMP              0 ****  ****    0 ROOT


##########                                Name:    ZINC000826324849
##########                DOCK_Rotatable_Bonds:                   4
##########                         Heavy_Atoms:                  27
##########                    Molecular_Weight:             395.374
##########                DOCK_Rotatable_Bonds:                   4
##########                       Formal_Charge:           0.0400001
##########                     HBond_Acceptors:                  13
##########                        HBond_Donors:                   1
##########                         Heavy_Atoms:                  27
##########                          Grid_Score:          -24.084641
##########                     Grid_vdw_energy:          -24.360107
##########                      Grid_es_energy:            0.275467
##########           Internal_energy_repulsive:           85.452087

@<TRIPOS>MOLECULE
ZINC000826324849
 41 44 1 0 0
SMALL
USER_CHARGES


@<TRIPOS>ATOM
      1 C1         -1.8126    2.6799   57.3058 C.3     1  ZINC000826324849   -0.0600
      2 C2         -2.9597    3.5604   56.8817 C.2     1  ZINC000826324849    0.2000
      3 N3         -4.2348    3.3365   57.0902 N.2     1  ZINC000826324849   -0.4600
      4 C4         -4.8804    4.3809   56.5413 C.2     1  ZINC000826324849    0.1600
      5 C5         -6.3719    4.5946   56.5169 C.3     1  ZINC000826324849    0.2200
      6 H6         -6.8506    3.9246   57.2311 H       1  ZINC000826324849    0.1300
      7 C7         -6.6911    6.0493   56.8798 C.3     1  ZINC000826324849    0.0600
      8 O8         -8.0850    6.2909   56.6741 O.3     1  ZINC000826324849   -0.3600
      9 C9         -8.5110    6.1413   55.3176 C.3     1  ZINC000826324849    0.0400
     10 C10        -8.2851    4.6913   54.8747 C.3     1  ZINC000826324849    0.0800
     11 N11        -6.8886    4.3287   55.1650 N.am    1  ZINC000826324849   -1.0100
     12 S12        -5.9268    3.6434   54.0040 S.o2    1  ZINC000826324849    2.7100
     13 O13        -5.9826    4.5060   52.8763 O.2     1  ZINC000826324849   -0.9300
     14 O14        -4.7125    3.2852   54.6493 O.2     1  ZINC000826324849   -0.9300
     15 C15        -6.6942    2.1346   53.5150 C.ar    1  ZINC000826324849   -0.5800
     16 C16        -7.7618    1.6374   54.2345 C.ar    1  ZINC000826324849   -0.0400
     17 C17        -8.3662    0.4529   53.8528 C.ar    1  ZINC000826324849   -0.0800
     18 C18        -7.9053   -0.2406   52.7492 C.ar    1  ZINC000826324849   -0.1100
     19 C19        -6.8362    0.2478   52.0204 C.ar    1  ZINC000826324849    0.1300
     20 F20        -6.3861   -0.4297   50.9417 F       1  ZINC000826324849   -0.1100
     21 C21        -6.2278    1.4449   52.3983 C.ar    1  ZINC000826324849    0.0500
     22 C22        -5.0803    1.9754   51.6205 C.2     1  ZINC000826324849    0.1800
     23 N23        -3.8204    2.0181   52.0059 N.2     1  ZINC000826324849   -0.2600
     24 N24        -3.1340    2.5473   51.0521 N.pl3   1  ZINC000826324849   -0.2200
     25 N25        -3.9188    2.8412   50.0749 N.2     1  ZINC000826324849   -0.0200
     26 N26        -5.1226    2.4990   50.3871 N.2     1  ZINC000826324849   -0.2600
     27 N27        -3.9817    5.1721   56.0364 N.2     1  ZINC000826324849   -0.3800
     28 O28        -2.8715    4.7219   56.2262 O.3     1  ZINC000826324849    0.0900
     29 H29        -0.8718    3.1338   56.9946 H       1  ZINC000826324849    0.1000
     30 H30        -1.8214    2.5688   58.3900 H       1  ZINC000826324849    0.1100
     31 H31        -1.9151    1.7001   56.8393 H       1  ZINC000826324849    0.1100
     32 H32        -6.4413    6.2268   57.9259 H       1  ZINC000826324849    0.1200
     33 H33        -6.1083    6.7188   56.2471 H       1  ZINC000826324849    0.0600
     34 H34        -9.5706    6.3849   55.2398 H       1  ZINC000826324849    0.1200
     35 H35        -7.9348    6.8110   54.6792 H       1  ZINC000826324849    0.0600
     36 H36        -8.9568    4.0310   55.4231 H       1  ZINC000826324849    0.0900
     37 H37        -8.4730    4.6007   53.8048 H       1  ZINC000826324849    0.1100
     38 H38        -8.1261    2.1741   55.0980 H       1  ZINC000826324849    0.1400
     39 H39        -9.2014    0.0682   54.4193 H       1  ZINC000826324849    0.1500
     40 H40        -8.3804   -1.1651   52.4561 H       1  ZINC000826324849    0.1500
     41 H41        -2.1764    2.7007   51.0682 H       1  ZINC000826324849    0.4800
@<TRIPOS>BOND
     1     1     2    1
     2     1    29    1
     3     1    30    1
     4     1    31    1
     5     2    28    1
     6     2     3    2
     7     3     4    1
     8     4     5    1
     9     4    27    2
    10     5     6    1
    11     5    11    1
    12     5     7    1
    13     7     8    1
    14     7    32    1
    15     7    33    1
    16     8     9    1
    17     9    10    1
    18     9    34    1
    19     9    35    1
    20    10    11    1
    21    10    36    1
    22    10    37    1
    23    11    12   am
    24    12    13    2
    25    12    14    2
    26    12    15    1
    27    15    21   ar
    28    15    16   ar
    29    16    17   ar
    30    16    38    1
    31    17    18   ar
    32    17    39    1
    33    18    19   ar
    34    18    40    1
    35    19    20    1
    36    19    21   ar
    37    21    22    1
    38    22    26    1
    39    22    23    2
    40    23    24    1
    41    24    25    1
    42    24    41    1
    43    25    26    2
    44    27    28    1
@<TRIPOS>SUBSTRUCTURE
     1 ZINC000826324849        1 TEMP              0 ****  ****    0 ROOT


##########                                Name:    ZINC000002873519
##########                DOCK_Rotatable_Bonds:                   5
##########                         Heavy_Atoms:                  25
##########                    Molecular_Weight:             375.207
##########                DOCK_Rotatable_Bonds:                   5
##########                       Formal_Charge:               -0.02
##########                     HBond_Acceptors:                   6
##########                        HBond_Donors:                   0
##########                         Heavy_Atoms:                  25
##########                          Grid_Score:          -24.012232
##########                     Grid_vdw_energy:          -23.575396
##########                      Grid_es_energy:           -0.436837
##########           Internal_energy_repulsive:           10.307749

@<TRIPOS>MOLECULE
ZINC000002873519
 37 39 1 0 0
SMALL
USER_CHARGES


@<TRIPOS>ATOM
      1 C1         -6.1590    2.8445   51.7089 C.3     1  ZINC000002873519   -0.1500
      2 C2         -4.8796    2.2181   51.2168 C.2     1  ZINC000002873519    0.4500
      3 O3         -4.5192    1.1531   51.6594 O.2     1  ZINC000002873519   -0.4800
      4 O4         -4.1404    2.8435   50.2864 O.3     1  ZINC000002873519   -0.2900
      5 C5         -2.7975    2.8702   50.4819 C.ar    1  ZINC000002873519    0.1200
      6 C6         -1.9584    2.1513   49.6469 C.ar    1  ZINC000002873519   -0.1100
      7 C7         -0.5910    2.1790   49.8458 C.ar    1  ZINC000002873519   -0.0800
      8 C8         -0.0456    2.9247   50.8802 C.ar    1  ZINC000002873519   -0.0400
      9 Cl9         1.6743    2.9481   51.1146 Cl      1  ZINC000002873519   -0.0500
     10 C10        -0.8625    3.6474   51.7228 C.ar    1  ZINC000002873519   -0.0800
     11 C11        -2.2508    3.6330   51.5300 C.ar    1  ZINC000002873519   -0.0700
     12 C12        -3.1262    4.3976   52.4193 C.2     1  ZINC000002873519    0.0400
     13 C13        -2.9442    4.3369   53.7871 C.2     1  ZINC000002873519   -0.1900
     14 C14        -1.9290    3.5711   54.5306 C.2     1  ZINC000002873519   -0.2000
     15 C15        -2.1423    3.8230   55.8393 C.2     1  ZINC000002873519    0.1200
     16 C16        -1.3408    3.2508   56.9393 C.ar    1  ZINC000002873519   -0.0400
     17 C17        -0.1082    2.6511   56.6707 C.ar    1  ZINC000002873519   -0.0800
     18 C18         0.6355    2.1185   57.7026 C.ar    1  ZINC000002873519   -0.1100
     19 C19         0.1626    2.1770   59.0031 C.ar    1  ZINC000002873519   -0.0200
     20 Cl20        1.1049    1.5041   60.2965 Cl      1  ZINC000002873519   -0.0600
     21 C21        -1.0587    2.7702   59.2760 C.ar    1  ZINC000002873519   -0.1100
     22 C22        -1.8093    3.3121   58.2538 C.ar    1  ZINC000002873519   -0.0800
     23 O23        -3.1810    4.6646   56.0128 O.3     1  ZINC000002873519   -0.2600
     24 C24        -3.7183    5.0295   54.8348 C.2     1  ZINC000002873519    0.5200
     25 O25        -4.6632    5.7774   54.6668 O.2     1  ZINC000002873519   -0.4200
     26 H26        -5.9452    3.4801   52.5682 H       1  ZINC000002873519    0.1100
     27 H27        -6.5989    3.4453   50.9130 H       1  ZINC000002873519    0.1000
     28 H28        -6.8581    2.0610   52.0014 H       1  ZINC000002873519    0.1100
     29 H29        -2.3737    1.5675   48.8388 H       1  ZINC000002873519    0.1500
     30 H30         0.0575    1.6158   49.1911 H       1  ZINC000002873519    0.1500
     31 H31        -0.4337    4.2263   52.5274 H       1  ZINC000002873519    0.1500
     32 H32        -3.9146    5.0092   52.0060 H       1  ZINC000002873519    0.1500
     33 H33        -1.1649    2.9333   54.1113 H       1  ZINC000002873519    0.1700
     34 H34         0.2613    2.6043   55.6569 H       1  ZINC000002873519    0.1400
     35 H35         1.5887    1.6546   57.4963 H       1  ZINC000002873519    0.1400
     36 H36        -1.4222    2.8123   60.2922 H       1  ZINC000002873519    0.1400
     37 H37        -2.7615    3.7744   58.4680 H       1  ZINC000002873519    0.1400
@<TRIPOS>BOND
     1     1     2    1
     2     1    26    1
     3     1    27    1
     4     1    28    1
     5     2     3    2
     6     2     4    1
     7     4     5    1
     8     5    11   ar
     9     5     6   ar
    10     6     7   ar
    11     6    29    1
    12     7     8   ar
    13     7    30    1
    14     8     9    1
    15     8    10   ar
    16    10    11   ar
    17    10    31    1
    18    11    12    1
    19    12    13    2
    20    12    32    1
    21    13    24    1
    22    13    14    1
    23    14    15    2
    24    14    33    1
    25    15    16    1
    26    15    23    1
    27    16    22   ar
    28    16    17   ar
    29    17    18   ar
    30    17    34    1
    31    18    19   ar
    32    18    35    1
    33    19    20    1
    34    19    21   ar
    35    21    22   ar
    36    21    36    1
    37    22    37    1
    38    23    24    1
    39    24    25    2
@<TRIPOS>SUBSTRUCTURE
     1 ZINC000002873519        1 TEMP              0 ****  ****    0 ROOT


##########                                Name:    ZINC000444205493
##########                DOCK_Rotatable_Bonds:                   4
##########                         Heavy_Atoms:                  24
##########                    Molecular_Weight:             415.351
##########                DOCK_Rotatable_Bonds:                   4
##########                       Formal_Charge:         -0.00999995
##########                     HBond_Acceptors:                   6
##########                        HBond_Donors:                   1
##########                         Heavy_Atoms:                  24
##########                          Grid_Score:          -23.985603
##########                     Grid_vdw_energy:          -24.249561
##########                      Grid_es_energy:            0.263957
##########           Internal_energy_repulsive:            4.201960

@<TRIPOS>MOLECULE
ZINC000444205493
 47 49 1 0 0
SMALL
USER_CHARGES


@<TRIPOS>ATOM
      1 C1        -14.6736   -3.9016   56.9811 C.3     1  ZINC000444205493   -0.1700
      2 C2        -13.4826   -3.0077   57.2119 C.2     1  ZINC000444205493    0.5100
      3 O3        -13.0077   -2.3799   56.2892 O.2     1  ZINC000444205493   -0.5100
      4 N4        -12.9449   -2.9060   58.4436 N.am    1  ZINC000444205493   -0.6800
      5 C5        -11.8387   -2.0758   58.6578 C.ar    1  ZINC000444205493    0.2300
      6 C6        -10.5583   -2.5394   58.3882 C.ar    1  ZINC000444205493   -0.1400
      7 C7         -9.4684   -1.7174   58.6002 C.ar    1  ZINC000444205493    0.0200
      8 C8         -9.6514   -0.4341   59.0810 C.ar    1  ZINC000444205493   -0.6900
      9 S9         -8.2583    0.6106   59.3504 S.o2    1  ZINC000444205493    2.7100
     10 O10        -8.5714    1.4137   60.4800 O.2     1  ZINC000444205493   -0.9500
     11 O11        -7.1111   -0.2256   59.2851 O.2     1  ZINC000444205493   -0.9500
     12 N12        -8.1603    1.6404   58.0572 N.am    1  ZINC000444205493   -1.0100
     13 C13        -9.2008    2.5996   57.6406 C.3     1  ZINC000444205493    0.1200
     14 C14        -8.4412    3.6941   56.8464 C.3     1  ZINC000444205493   -0.1200
     15 C15        -7.3613    2.8597   56.1308 C.3     1  ZINC000444205493   -0.0700
     16 C16        -7.8996    2.2803   54.8185 C.3     1  ZINC000444205493   -0.1100
     17 C17        -7.3667    3.2536   53.7344 C.3     1  ZINC000444205493   -0.1200
     18 C18        -5.9573    3.6222   54.2635 C.3     1  ZINC000444205493   -0.1000
     19 H19        -5.2388    2.8427   54.0100 H       1  ZINC000444205493    0.0700
     20 C20        -5.5070    4.9691   53.6942 C.3     1  ZINC000444205493   -0.1500
     21 C21        -6.1385    3.7129   55.7957 C.3     1  ZINC000444205493   -0.1100
     22 C22        -7.0170    1.7554   57.1357 C.3     1  ZINC000444205493    0.1300
     23 C23       -10.9253    0.0317   59.3504 C.ar    1  ZINC000444205493    0.0300
     24 C24       -12.0201   -0.7834   59.1356 C.ar    1  ZINC000444205493   -0.1500
     25 Br25      -13.7619   -0.1461   59.5042 Br      1  ZINC000444205493   -0.0300
     26 H26       -14.9652   -3.8547   55.9319 H       1  ZINC000444205493    0.1000
     27 H27       -14.4134   -4.9279   57.2404 H       1  ZINC000444205493    0.1000
     28 H28       -15.5038   -3.5689   57.6042 H       1  ZINC000444205493    0.1000
     29 H29       -13.3246   -3.4083   59.1815 H       1  ZINC000444205493    0.4200
     30 H30       -10.4143   -3.5420   58.0133 H       1  ZINC000444205493    0.1600
     31 H31        -8.4722   -2.0778   58.3905 H       1  ZINC000444205493    0.1500
     32 H32        -9.9350    2.1085   57.0019 H       1  ZINC000444205493    0.0800
     33 H33        -9.6873    3.0339   58.5140 H       1  ZINC000444205493    0.0800
     34 H34        -9.0986    4.1824   56.1270 H       1  ZINC000444205493    0.0900
     35 H35        -7.9899    4.4233   57.5192 H       1  ZINC000444205493    0.0800
     36 H36        -7.5094    1.2756   54.6555 H       1  ZINC000444205493    0.0700
     37 H37        -8.9895    2.2722   54.8226 H       1  ZINC000444205493    0.0700
     38 H38        -7.2976    2.7544   52.7680 H       1  ZINC000444205493    0.0700
     39 H39        -7.9977    4.1399   53.6679 H       1  ZINC000444205493    0.0700
     40 H40        -6.2257    5.7397   53.9728 H       1  ZINC000444205493    0.0500
     41 H41        -4.5266    5.2241   54.0964 H       1  ZINC000444205493    0.0500
     42 H42        -5.4480    4.9029   52.6078 H       1  ZINC000444205493    0.0500
     43 H43        -6.3108    4.7476   56.0922 H       1  ZINC000444205493    0.0700
     44 H44        -5.2568    3.3193   56.3014 H       1  ZINC000444205493    0.0700
     45 H45        -6.1142    2.0212   57.6856 H       1  ZINC000444205493    0.0700
     46 H46        -6.8703    0.8099   56.6137 H       1  ZINC000444205493    0.0800
     47 H47       -11.0649    1.0348   59.7255 H       1  ZINC000444205493    0.1500
@<TRIPOS>BOND
     1     1     2    1
     2     1    26    1
     3     1    27    1
     4     1    28    1
     5     2     3    2
     6     2     4   am
     7     4     5    1
     8     4    29    1
     9     5    24   ar
    10     5     6   ar
    11     6     7   ar
    12     6    30    1
    13     7     8   ar
    14     7    31    1
    15     8     9    1
    16     8    23   ar
    17     9    10    2
    18     9    11    2
    19     9    12   am
    20    12    22    1
    21    12    13    1
    22    13    14    1
    23    13    32    1
    24    13    33    1
    25    14    15    1
    26    14    34    1
    27    14    35    1
    28    15    21    1
    29    15    16    1
    30    15    22    1
    31    16    17    1
    32    16    36    1
    33    16    37    1
    34    17    18    1
    35    17    38    1
    36    17    39    1
    37    18    19    1
    38    18    20    1
    39    18    21    1
    40    20    40    1
    41    20    41    1
    42    20    42    1
    43    21    43    1
    44    21    44    1
    45    22    45    1
    46    22    46    1
    47    23    24   ar
    48    23    47    1
    49    24    25    1
@<TRIPOS>SUBSTRUCTURE
     1 ZINC000444205493        1 TEMP              0 ****  ****    0 ROOT


##########                                Name:    ZINC001023407238
##########                DOCK_Rotatable_Bonds:                   7
##########                         Heavy_Atoms:                  25
##########                    Molecular_Weight:             349.387
##########                DOCK_Rotatable_Bonds:                   7
##########                       Formal_Charge:          -0.0300008
##########                     HBond_Acceptors:                   8
##########                        HBond_Donors:                   2
##########                         Heavy_Atoms:                  25
##########                          Grid_Score:          -23.945688
##########                     Grid_vdw_energy:          -23.890038
##########                      Grid_es_energy:           -0.055650
##########           Internal_energy_repulsive:            8.975653

@<TRIPOS>MOLECULE
ZINC001023407238
 48 50 1 0 0
SMALL
USER_CHARGES


@<TRIPOS>ATOM
      1 C1         -8.1692    1.2860   53.8227 C.3     1  ZINC001023407238   -0.0900
      2 C2         -7.0401    1.3510   52.8267 C.2     1  ZINC001023407238   -0.1100
      3 C3         -6.3889    2.4887   52.3997 C.2     1  ZINC001023407238   -0.0500
      4 C4         -6.6684    3.8619   52.8327 C.2     1  ZINC001023407238    0.6100
      5 O5         -7.6858    4.4202   52.4662 O.2     1  ZINC001023407238   -0.5100
      6 N6         -5.7986    4.5054   53.6362 N.am    1  ZINC001023407238   -0.6100
      7 C7         -5.9536    5.8768   54.1431 C.3     1  ZINC001023407238    0.0800
      8 C8         -4.7338    6.1742   55.0404 C.3     1  ZINC001023407238    0.0900
      9 H9         -3.9630    6.7034   54.4802 H       1  ZINC001023407238    0.0800
     10 O10        -5.1243    6.9246   56.1921 O.3     1  ZINC001023407238   -0.5500
     11 C11        -4.2449    4.7578   55.4432 C.3     1  ZINC001023407238    0.1400
     12 H12        -4.8204    4.3703   56.2839 H       1  ZINC001023407238    0.1200
     13 N13        -2.8123    4.7641   55.7493 N.am    1  ZINC001023407238   -0.7200
     14 C14        -2.2013    3.6273   56.1378 C.2     1  ZINC001023407238    0.5200
     15 O15        -2.8378    2.5996   56.2354 O.2     1  ZINC001023407238   -0.5300
     16 C16        -0.7272    3.6334   56.4510 C.3     1  ZINC001023407238   -0.1300
     17 C17        -0.4017    2.4742   57.3951 C.3     1  ZINC001023407238   -0.1100
     18 H18        -0.7164    1.5240   56.9633 H       1  ZINC001023407238    0.1100
     19 C19         1.1050    2.4506   57.7391 C.3     1  ZINC001023407238    0.0600
     20 O20         1.1551    1.9939   59.1232 O.3     1  ZINC001023407238   -0.3500
     21 C21         0.0516    2.3886   59.7742 C.2     1  ZINC001023407238    0.4800
     22 O22        -0.0495    2.4856   60.9743 O.2     1  ZINC001023407238   -0.4600
     23 C23        -1.0528    2.6922   58.7791 C.3     1  ZINC001023407238   -0.1800
     24 C24        -4.5370    3.9486   54.1575 C.3     1  ZINC001023407238    0.1000
     25 N25        -5.4280    2.1010   51.4933 N.pl3   1  ZINC001023407238   -0.4200
     26 C26        -4.5046    2.9961   50.7917 C.3     1  ZINC001023407238    0.0700
     27 C27        -5.4787    0.7534   51.3580 C.2     1  ZINC001023407238    0.0100
     28 C28        -6.4516    0.2682   52.1660 C.2     1  ZINC001023407238   -0.2000
     29 H29        -7.7614    1.1730   54.8273 H       1  ZINC001023407238    0.0600
     30 H30        -8.7542    2.2042   53.7693 H       1  ZINC001023407238    0.0600
     31 H31        -8.8085    0.4339   53.5921 H       1  ZINC001023407238    0.0700
     32 H32        -5.9810    6.5790   53.3100 H       1  ZINC001023407238    0.0800
     33 H33        -6.8709    5.9547   54.7268 H       1  ZINC001023407238    0.0800
     34 H34        -5.7663    6.4728   56.7568 H       1  ZINC001023407238    0.3900
     35 H35        -2.3035    5.5863   55.6724 H       1  ZINC001023407238    0.4100
     36 H36        -0.1591    3.5205   55.5277 H       1  ZINC001023407238    0.1000
     37 H37        -0.4610    4.5765   56.9283 H       1  ZINC001023407238    0.1100
     38 H38         1.6330    1.7532   57.0888 H       1  ZINC001023407238    0.1200
     39 H39         1.5310    3.4502   57.6524 H       1  ZINC001023407238    0.0800
     40 H40        -1.3828    3.7259   58.8822 H       1  ZINC001023407238    0.1100
     41 H41        -1.8905    2.0096   58.9220 H       1  ZINC001023407238    0.1200
     42 H42        -4.6542    2.8908   54.3935 H       1  ZINC001023407238    0.0900
     43 H43        -3.7372    4.0896   53.4305 H       1  ZINC001023407238    0.0800
     44 H44        -3.5632    3.0483   51.3388 H       1  ZINC001023407238    0.0800
     45 H45        -4.3206    2.6139   49.7876 H       1  ZINC001023407238    0.0900
     46 H46        -4.9428    3.9920   50.7268 H       1  ZINC001023407238    0.0800
     47 H47        -4.8443    0.1625   50.7141 H       1  ZINC001023407238    0.1700
     48 H48        -6.7285   -0.7700   52.2752 H       1  ZINC001023407238    0.1400
@<TRIPOS>BOND
     1     1     2    1
     2     1    29    1
     3     1    30    1
     4     1    31    1
     5     2    28    1
     6     2     3    2
     7     3     4    1
     8     3    25    1
     9     4     5    2
    10     4     6   am
    11     6    24    1
    12     6     7    1
    13     7     8    1
    14     7    32    1
    15     7    33    1
    16     8     9    1
    17     8    10    1
    18     8    11    1
    19    10    34    1
    20    11    12    1
    21    11    13    1
    22    11    24    1
    23    13    14   am
    24    13    35    1
    25    14    15    2
    26    14    16    1
    27    16    17    1
    28    16    36    1
    29    16    37    1
    30    17    18    1
    31    17    23    1
    32    17    19    1
    33    19    20    1
    34    19    38    1
    35    19    39    1
    36    20    21    1
    37    21    22    2
    38    21    23    1
    39    23    40    1
    40    23    41    1
    41    24    42    1
    42    24    43    1
    43    25    26    1
    44    25    27    1
    45    26    44    1
    46    26    45    1
    47    26    46    1
    48    27    28    2
    49    27    47    1
    50    28    48    1
@<TRIPOS>SUBSTRUCTURE
     1 ZINC001023407238        1 TEMP              0 ****  ****    0 ROOT


##########                                Name:    ZINC000616491533
##########                DOCK_Rotatable_Bonds:                   4
##########                         Heavy_Atoms:                  27
##########                    Molecular_Weight:             375.418
##########                DOCK_Rotatable_Bonds:                   4
##########                       Formal_Charge:           0.0299996
##########                     HBond_Acceptors:                   7
##########                        HBond_Donors:                   0
##########                         Heavy_Atoms:                  27
##########                          Grid_Score:          -23.853188
##########                     Grid_vdw_energy:          -22.715528
##########                      Grid_es_energy:           -1.137660
##########           Internal_energy_repulsive:           16.279938

@<TRIPOS>MOLECULE
ZINC000616491533
 50 53 1 0 0
SMALL
USER_CHARGES


@<TRIPOS>ATOM
      1 C1        -10.7951   -1.9415   57.5637 C.3     1  ZINC000616491533   -0.1700
      2 C2        -12.0925   -2.1575   56.7822 C.3     1  ZINC000616491533    0.1400
      3 H3        -11.8635   -2.4455   55.7561 H       1  ZINC000616491533    0.0800
      4 C4        -12.9372   -3.2586   57.4607 C.3     1  ZINC000616491533   -0.1200
      5 C5        -13.9473   -2.4486   58.2998 C.3     1  ZINC000616491533   -0.0700
      6 C6        -14.1983   -1.2100   57.4186 C.3     1  ZINC000616491533    0.0900
      7 N7        -12.8916   -0.9227   56.7884 N.am    1  ZINC000616491533   -0.6100
      8 C8        -12.4994    0.2724   56.3043 C.2     1  ZINC000616491533    0.6100
      9 O9        -13.2488    1.2283   56.3642 O.2     1  ZINC000616491533   -0.5200
     10 C10       -11.1621    0.4210   55.7023 C.2     1  ZINC000616491533   -0.2400
     11 C11       -10.2024    1.3482   56.0564 C.2     1  ZINC000616491533    0.0700
     12 C12       -10.3285    2.3971   57.1310 C.3     1  ZINC000616491533    0.3400
     13 F13       -11.3330    3.3056   56.7805 F       1  ZINC000616491533   -0.1900
     14 F14       -10.6571    1.7840   58.3448 F       1  ZINC000616491533   -0.1600
     15 N15        -9.1336    1.1424   55.2655 N.pl3   1  ZINC000616491533   -0.2900
     16 C16        -7.9372    1.8717   55.2987 C.ar    1  ZINC000616491533    0.1300
     17 C17        -7.2394    2.0096   56.4911 C.ar    1  ZINC000616491533   -0.1000
     18 C18        -6.0607    2.7288   56.5207 C.ar    1  ZINC000616491533   -0.1000
     19 C19        -5.5757    3.3119   55.3643 C.ar    1  ZINC000616491533   -0.1000
     20 C20        -6.2684    3.1765   54.1753 C.ar    1  ZINC000616491533   -0.1000
     21 C21        -7.4444    2.4531   54.1380 C.ar    1  ZINC000616491533   -0.0900
     22 N22        -9.4185    0.0770   54.4041 N.2     1  ZINC000616491533   -0.2600
     23 C23       -10.6202   -0.3630   54.6587 C.2     1  ZINC000616491533    0.0700
     24 C24       -15.2335   -3.2371   58.5001 C.3     1  ZINC000616491533   -0.1400
     25 C25       -16.1941   -2.4233   59.3743 C.3     1  ZINC000616491533    0.0600
     26 O26       -15.5480   -2.0949   60.6060 O.3     1  ZINC000616491533   -0.3800
     27 C27       -14.3798   -1.2848   60.4590 C.3     1  ZINC000616491533    0.0600
     28 C28       -13.3361   -2.0462   59.6342 C.3     1  ZINC000616491533   -0.1500
     29 H29       -11.0315   -1.6418   58.5846 H       1  ZINC000616491533    0.0600
     30 H30       -10.2224   -2.8687   57.5806 H       1  ZINC000616491533    0.0600
     31 H31       -10.2070   -1.1600   57.0825 H       1  ZINC000616491533    0.0800
     32 H32       -13.4526   -3.8640   56.7151 H       1  ZINC000616491533    0.0800
     33 H33       -12.3147   -3.8822   58.1024 H       1  ZINC000616491533    0.0900
     34 H34       -14.9453   -1.4315   56.6564 H       1  ZINC000616491533    0.0800
     35 H35       -14.5181   -0.3669   58.0311 H       1  ZINC000616491533    0.0800
     36 H36        -9.3810    2.9257   57.2357 H       1  ZINC000616491533    0.1400
     37 H37        -7.6180    1.5550   57.3947 H       1  ZINC000616491533    0.1300
     38 H38        -5.5175    2.8364   57.4479 H       1  ZINC000616491533    0.1400
     39 H39        -4.6542    3.8746   55.3901 H       1  ZINC000616491533    0.1300
     40 H40        -5.8872    3.6329   53.2738 H       1  ZINC000616491533    0.1400
     41 H41        -7.9852    2.3477   53.2090 H       1  ZINC000616491533    0.1300
     42 H42       -11.1164   -1.1797   54.1556 H       1  ZINC000616491533    0.2100
     43 H43       -15.6966   -3.4299   57.5324 H       1  ZINC000616491533    0.0800
     44 H44       -15.0075   -4.1836   58.9913 H       1  ZINC000616491533    0.0800
     45 H45       -16.4723   -1.5070   58.8536 H       1  ZINC000616491533    0.0500
     46 H46       -17.0883   -3.0125   59.5781 H       1  ZINC000616491533    0.1000
     47 H47       -14.6415   -0.3581   59.9483 H       1  ZINC000616491533    0.0500
     48 H48       -13.9697   -1.0557   61.4425 H       1  ZINC000616491533    0.1000
     49 H49       -13.0249   -2.9394   60.1761 H       1  ZINC000616491533    0.0800
     50 H50       -12.4717   -1.4056   59.4601 H       1  ZINC000616491533    0.0800
@<TRIPOS>BOND
     1     1     2    1
     2     1    29    1
     3     1    30    1
     4     1    31    1
     5     2     3    1
     6     2     7    1
     7     2     4    1
     8     4     5    1
     9     4    32    1
    10     4    33    1
    11     5    28    1
    12     5     6    1
    13     5    24    1
    14     6     7    1
    15     6    34    1
    16     6    35    1
    17     7     8   am
    18     8     9    2
    19     8    10    1
    20    10    23    1
    21    10    11    2
    22    11    12    1
    23    11    15    1
    24    12    13    1
    25    12    14    1
    26    12    36    1
    27    15    16    1
    28    15    22    1
    29    16    21   ar
    30    16    17   ar
    31    17    18   ar
    32    17    37    1
    33    18    19   ar
    34    18    38    1
    35    19    20   ar
    36    19    39    1
    37    20    21   ar
    38    20    40    1
    39    21    41    1
    40    22    23    2
    41    23    42    1
    42    24    25    1
    43    24    43    1
    44    24    44    1
    45    25    26    1
    46    25    45    1
    47    25    46    1
    48    26    27    1
    49    27    28    1
    50    27    47    1
    51    27    48    1
    52    28    49    1
    53    28    50    1
@<TRIPOS>SUBSTRUCTURE
     1 ZINC000616491533        1 TEMP              0 ****  ****    0 ROOT


##########                                Name:    ZINC001708427409
##########                DOCK_Rotatable_Bonds:                   6
##########                         Heavy_Atoms:                  24
##########                    Molecular_Weight:             334.505
##########                DOCK_Rotatable_Bonds:                   6
##########                       Formal_Charge:          -0.0200006
##########                     HBond_Acceptors:                   5
##########                        HBond_Donors:                   1
##########                         Heavy_Atoms:                  24
##########                          Grid_Score:          -23.852448
##########                     Grid_vdw_energy:          -21.890009
##########                      Grid_es_energy:           -1.962439
##########           Internal_energy_repulsive:           19.183109

@<TRIPOS>MOLECULE
ZINC001708427409
 58 60 1 0 0
SMALL
USER_CHARGES


@<TRIPOS>ATOM
      1 C1         -5.2170    2.3757   65.7477 C.3     1  ZINC001708427409   -0.1500
      2 C2         -6.2879    1.3669   65.3280 C.3     1  ZINC001708427409   -0.1200
      3 C3         -7.6520    2.0586   65.2873 C.3     1  ZINC001708427409    0.0000
      4 H4         -7.5309    3.0801   64.9265 H       1  ZINC001708427409    0.0800
      5 C5         -8.2538    2.0826   66.6937 C.3     1  ZINC001708427409   -0.1400
      6 C6         -8.5704    1.3043   64.3607 C.2     1  ZINC001708427409    0.1800
      7 N7         -9.1077    0.1388   64.5861 N.2     1  ZINC001708427409   -0.2800
      8 N8         -9.8365   -0.2111   63.5870 N.2     1  ZINC001708427409   -0.3200
      9 C9         -9.8031    0.7199   62.6630 C.2     1  ZINC001708427409    0.3600
     10 N10       -10.4644    0.6962   61.4453 N.3     1  ZINC001708427409   -0.4200
     11 C11       -11.8962    0.3270   61.6226 C.3     1  ZINC001708427409    0.0400
     12 C12       -12.3398   -0.2049   60.2422 C.3     1  ZINC001708427409   -0.0900
     13 H13       -12.8446    0.5795   59.6784 H       1  ZINC001708427409    0.0900
     14 C14       -13.2611   -1.4149   60.4098 C.3     1  ZINC001708427409   -0.1500
     15 C15       -11.0247   -0.6202   59.5297 C.3     1  ZINC001708427409   -0.0800
     16 H16       -11.0550   -1.6671   59.2281 H       1  ZINC001708427409    0.0900
     17 C17       -10.8623    0.2952   58.3159 C.3     1  ZINC001708427409   -0.1100
     18 C18        -9.4486    0.1587   57.7512 C.3     1  ZINC001708427409   -0.1200
     19 C19        -8.4600    0.6854   58.7891 C.3     1  ZINC001708427409   -0.1100
     20 C20        -8.5565   -0.1125   60.0736 C.3     1  ZINC001708427409   -0.1000
     21 C21        -9.9424   -0.3832   60.5796 C.3     1  ZINC001708427409    0.1000
     22 H22        -9.8881   -1.2781   61.1997 H       1  ZINC001708427409    0.0600
     23 N23        -8.9991    1.7185   63.1301 N.pl3   1  ZINC001708427409   -0.4700
     24 C24        -8.6579    2.9705   62.4499 C.3     1  ZINC001708427409    0.0800
     25 C25        -9.7911    3.9803   62.6418 C.3     1  ZINC001708427409    0.1200
     26 C26        -9.8966    4.3532   64.1220 C.3     1  ZINC001708427409   -0.1800
     27 C27        -9.4993    5.2367   61.8190 C.3     1  ZINC001708427409   -0.1500
     28 O28       -11.0234    3.4018   62.2072 O.3     1  ZINC001708427409   -0.5400
     29 H29        -5.4550    2.7681   66.7364 H       1  ZINC001708427409    0.0600
     30 H30        -4.2451    1.8829   65.7768 H       1  ZINC001708427409    0.0600
     31 H31        -5.1877    3.1947   65.0291 H       1  ZINC001708427409    0.0500
     32 H32        -6.0500    0.9745   64.3393 H       1  ZINC001708427409    0.0700
     33 H33        -6.3172    0.5479   66.0466 H       1  ZINC001708427409    0.0800
     34 H34        -7.5897    2.6283   67.3639 H       1  ZINC001708427409    0.0700
     35 H35        -9.2257    2.5754   66.6647 H       1  ZINC001708427409    0.0500
     36 H36        -8.3751    1.0612   67.0545 H       1  ZINC001708427409    0.0700
     37 H37       -11.9967   -0.4511   62.3794 H       1  ZINC001708427409    0.0600
     38 H38       -12.4829    1.2034   61.8980 H       1  ZINC001708427409    0.0800
     39 H39       -14.1558   -1.1173   60.9565 H       1  ZINC001708427409    0.0600
     40 H40       -13.5445   -1.7944   59.4281 H       1  ZINC001708427409    0.0600
     41 H41       -12.7392   -2.1949   60.9641 H       1  ZINC001708427409    0.0600
     42 H42       -11.5867    0.0150   57.5510 H       1  ZINC001708427409    0.0600
     43 H43       -11.0347    1.3289   58.6157 H       1  ZINC001708427409    0.0700
     44 H44        -9.2370   -0.8900   57.5430 H       1  ZINC001708427409    0.0600
     45 H45        -9.3625    0.7420   56.8344 H       1  ZINC001708427409    0.0600
     46 H46        -7.4476    0.6071   58.3929 H       1  ZINC001708427409    0.0600
     47 H47        -8.6828    1.7316   58.9989 H       1  ZINC001708427409    0.0600
     48 H48        -8.0684   -1.0742   59.9153 H       1  ZINC001708427409    0.0600
     49 H49        -8.0060    0.4206   60.8486 H       1  ZINC001708427409    0.0700
     50 H50        -7.7368    3.3734   62.8711 H       1  ZINC001708427409    0.0900
     51 H51        -8.5177    2.7794   61.3859 H       1  ZINC001708427409    0.1000
     52 H52        -8.9567    4.7945   64.4534 H       1  ZINC001708427409    0.0700
     53 H53       -10.7041    5.0726   64.2587 H       1  ZINC001708427409    0.0700
     54 H54       -10.1045    3.4581   64.7082 H       1  ZINC001708427409    0.0600
     55 H55        -9.3423    4.9600   60.7765 H       1  ZINC001708427409    0.0700
     56 H56       -10.3442    5.9218   61.8898 H       1  ZINC001708427409    0.0700
     57 H57        -8.6035    5.7237   62.2045 H       1  ZINC001708427409    0.0700
     58 H58       -11.0354    3.1591   61.2712 H       1  ZINC001708427409    0.3800
@<TRIPOS>BOND
     1     1     2    1
     2     1    29    1
     3     1    30    1
     4     1    31    1
     5     2     3    1
     6     2    32    1
     7     2    33    1
     8     3     4    1
     9     3     5    1
    10     3     6    1
    11     5    34    1
    12     5    35    1
    13     5    36    1
    14     6    23    1
    15     6     7    2
    16     7     8    1
    17     8     9    2
    18     9    10    1
    19     9    23    1
    20    10    21    1
    21    10    11    1
    22    11    12    1
    23    11    37    1
    24    11    38    1
    25    12    13    1
    26    12    14    1
    27    12    15    1
    28    14    39    1
    29    14    40    1
    30    14    41    1
    31    15    16    1
    32    15    21    1
    33    15    17    1
    34    17    18    1
    35    17    42    1
    36    17    43    1
    37    18    19    1
    38    18    44    1
    39    18    45    1
    40    19    20    1
    41    19    46    1
    42    19    47    1
    43    20    21    1
    44    20    48    1
    45    20    49    1
    46    21    22    1
    47    23    24    1
    48    24    25    1
    49    24    50    1
    50    24    51    1
    51    25    26    1
    52    25    27    1
    53    25    28    1
    54    26    52    1
    55    26    53    1
    56    26    54    1
    57    27    55    1
    58    27    56    1
    59    27    57    1
    60    28    58    1
@<TRIPOS>SUBSTRUCTURE
     1 ZINC001708427409        1 TEMP              0 ****  ****    0 ROOT


##########                                Name:    ZINC000793092912
##########                DOCK_Rotatable_Bonds:                   4
##########                         Heavy_Atoms:                  26
##########                    Molecular_Weight:               407.2
##########                DOCK_Rotatable_Bonds:                   4
##########                       Formal_Charge:         2.90573e-07
##########                     HBond_Acceptors:                  10
##########                        HBond_Donors:                   1
##########                         Heavy_Atoms:                  26
##########                          Grid_Score:          -23.835077
##########                     Grid_vdw_energy:          -22.934269
##########                      Grid_es_energy:           -0.900808
##########           Internal_energy_repulsive:           13.309998

@<TRIPOS>MOLECULE
ZINC000793092912
 40 43 1 0 0
SMALL
USER_CHARGES


@<TRIPOS>ATOM
      1 C1         -0.1494    3.0503   59.5129 C.3     1  ZINC000793092912   -0.1300
      2 C2         -0.6534    3.6807   58.2131 C.3     1  ZINC000793092912   -0.0800
      3 C3         -0.5312    2.8022   56.9775 C.3     1  ZINC000793092912   -0.1100
      4 C4         -1.8324    2.7066   56.2032 C.3     1  ZINC000793092912    0.1100
      5 N5         -2.5113    3.9886   56.1194 N.am    1  ZINC000793092912   -0.5700
      6 C6         -2.8232    4.4803   54.9039 C.2     1  ZINC000793092912    0.5100
      7 O7         -3.3903    5.5490   54.8089 O.2     1  ZINC000793092912   -0.5100
      8 C8         -2.4711    3.7099   53.6740 C.2     1  ZINC000793092912    0.5100
      9 O9         -3.0415    2.6672   53.4270 O.2     1  ZINC000793092912   -0.4900
     10 N10        -1.5202    4.1723   52.8384 N.am    1  ZINC000793092912   -0.6400
     11 C11        -1.1904    3.4508   51.6866 C.ar    1  ZINC000793092912    0.1600
     12 C12        -2.1717    3.1489   50.7515 C.ar    1  ZINC000793092912   -0.1200
     13 C13        -1.8474    2.4361   49.6130 C.ar    1  ZINC000793092912   -0.0600
     14 C14        -0.5429    2.0201   49.4013 C.ar    1  ZINC000793092912    0.0200
     15 O15         0.0267    1.3156   48.3792 O.3     1  ZINC000793092912   -0.2800
     16 C16         1.4435    1.5424   48.4989 C.3     1  ZINC000793092912    0.5700
     17 F17         2.1580    0.4032   48.1132 F       1  ZINC000793092912   -0.1100
     18 F18         1.8310    2.6469   47.7326 F       1  ZINC000793092912   -0.1500
     19 O19         1.6307    1.8059   49.9020 O.3     1  ZINC000793092912   -0.2800
     20 C20         0.4441    2.3214   50.3377 C.ar    1  ZINC000793092912    0.0500
     21 C21         0.1199    3.0408   51.4749 C.ar    1  ZINC000793092912   -0.0900
     22 C22        -2.8670    4.7604   57.3007 C.3     1  ZINC000793092912    0.1100
     23 C23        -1.7506    4.7252   58.3338 C.3     1  ZINC000793092912   -0.1200
     24 H24        -2.0702    4.9373   59.3541 H       1  ZINC000793092912    0.1400
     25 C25        -0.3355    5.1699   57.9959 C.3     1  ZINC000793092912    0.0000
     26 Cl26        0.5941    6.0360   59.2751 Cl      1  ZINC000793092912   -0.0800
     27 Cl27       -0.0093    5.6974   56.3029 Cl      1  ZINC000793092912   -0.0900
     28 H28        -0.9756    2.5505   60.0186 H       1  ZINC000793092912    0.0800
     29 H29         0.6305    2.3234   59.2857 H       1  ZINC000793092912    0.0700
     30 H30         0.2560    3.8277   60.1604 H       1  ZINC000793092912    0.0700
     31 H31         0.2378    3.2159   56.3252 H       1  ZINC000793092912    0.0900
     32 H32        -0.2292    1.8010   57.2848 H       1  ZINC000793092912    0.1000
     33 H33        -1.6196    2.3516   55.1949 H       1  ZINC000793092912    0.1100
     34 H34        -2.4878    1.9901   56.6986 H       1  ZINC000793092912    0.0800
     35 H35        -1.0644    5.0055   53.0359 H       1  ZINC000793092912    0.4300
     36 H36        -3.1896    3.4712   50.9144 H       1  ZINC000793092912    0.1500
     37 H37        -2.6121    2.2025   48.8871 H       1  ZINC000793092912    0.1500
     38 H38         0.8845    3.2802   52.1990 H       1  ZINC000793092912    0.1600
     39 H39        -3.0351    5.7979   57.0120 H       1  ZINC000793092912    0.1400
     40 H40        -3.7848    4.3566   57.7280 H       1  ZINC000793092912    0.1000
@<TRIPOS>BOND
     1     1     2    1
     2     1    28    1
     3     1    29    1
     4     1    30    1
     5     2    23    1
     6     2    25    1
     7     2     3    1
     8     3     4    1
     9     3    31    1
    10     3    32    1
    11     4     5    1
    12     4    33    1
    13     4    34    1
    14     5     6   am
    15     5    22    1
    16     6     7    2
    17     6     8    1
    18     8     9    2
    19     8    10   am
    20    10    11    1
    21    10    35    1
    22    11    21   ar
    23    11    12   ar
    24    12    13   ar
    25    12    36    1
    26    13    14   ar
    27    13    37    1
    28    14    20   ar
    29    14    15    1
    30    15    16    1
    31    16    17    1
    32    16    18    1
    33    16    19    1
    34    19    20    1
    35    20    21   ar
    36    21    38    1
    37    22    23    1
    38    22    39    1
    39    22    40    1
    40    23    24    1
    41    23    25    1
    42    25    26    1
    43    25    27    1
@<TRIPOS>SUBSTRUCTURE
     1 ZINC000793092912        1 TEMP              0 ****  ****    0 ROOT


##########                                Name:    ZINC000648570180
##########                DOCK_Rotatable_Bonds:                   4
##########                         Heavy_Atoms:                  25
##########                    Molecular_Weight:             342.484
##########                DOCK_Rotatable_Bonds:                   4
##########                       Formal_Charge:          0.00999971
##########                     HBond_Acceptors:                   5
##########                        HBond_Donors:                   0
##########                         Heavy_Atoms:                  25
##########                          Grid_Score:          -23.786118
##########                     Grid_vdw_energy:          -22.284740
##########                      Grid_es_energy:           -1.501378
##########           Internal_energy_repulsive:           85.756989

@<TRIPOS>MOLECULE
ZINC000648570180
 55 58 1 0 0
SMALL
USER_CHARGES


@<TRIPOS>ATOM
      1 C1          4.2504    0.7196   49.8774 C.3     1  ZINC000648570180   -0.1500
      2 C2          3.2145    1.6441   49.2345 C.3     1  ZINC000648570180   -0.0600
      3 C3          3.8665    2.4678   48.1222 C.3     1  ZINC000648570180   -0.1400
      4 C4          2.0470    0.8132   48.6632 C.3     1  ZINC000648570180   -0.1200
      5 C5          0.7931    1.6790   48.9413 C.3     1  ZINC000648570180   -0.1300
      6 C6          1.0968    2.2828   50.3349 C.3     1  ZINC000648570180   -0.1200
      7 C7          2.6104    2.5784   50.2974 C.3     1  ZINC000648570180   -0.0700
      8 H8          2.7809    3.6188   50.0203 H       1  ZINC000648570180    0.0800
      9 C9          3.2344    2.2917   51.6645 C.3     1  ZINC000648570180   -0.1000
     10 H10         3.3497    1.2192   51.8219 H       1  ZINC000648570180    0.1000
     11 C11         4.5924    3.0257   51.8211 C.3     1  ZINC000648570180   -0.1400
     12 C12         4.7141    3.2054   53.3490 C.3     1  ZINC000648570180    0.1200
     13 N13         3.3562    3.1270   53.9073 N.am    1  ZINC000648570180   -0.6000
     14 C14         3.0376    3.2177   55.2136 C.2     1  ZINC000648570180    0.5800
     15 O15         3.9111    3.3795   56.0421 O.2     1  ZINC000648570180   -0.5200
     16 C16         1.6188    3.1200   55.6402 C.ar    1  ZINC000648570180    0.1600
     17 C17         1.2700    2.3908   56.7766 C.ar    1  ZINC000648570180   -0.2000
     18 C18        -0.0694    2.3285   57.1364 C.ar    1  ZINC000648570180    0.1800
     19 N19        -0.9660    2.9569   56.3973 N.ar    1  ZINC000648570180   -0.5400
     20 C20        -0.6039    3.6426   55.3218 C.ar    1  ZINC000648570180    0.4800
     21 N21        -1.5749    4.2867   54.5745 N.3     1  ZINC000648570180   -0.4400
     22 C22        -1.3829    4.0363   53.1230 C.3     1  ZINC000648570180    0.0500
     23 C23        -2.7759    4.3504   52.5218 C.3     1  ZINC000648570180   -0.1200
     24 C24        -3.7463    3.8114   53.5978 C.3     1  ZINC000648570180   -0.1300
     25 C25        -2.9224    3.7700   54.8981 C.3     1  ZINC000648570180    0.0400
     26 N26         0.6615    3.7315   54.9471 N.ar    1  ZINC000648570180   -0.5000
     27 C27         2.4002    2.9331   52.8013 C.3     1  ZINC000648570180    0.1100
     28 H28         3.8063    0.2188   50.7376 H       1  ZINC000648570180    0.0600
     29 H29         4.5735   -0.0254   49.1502 H       1  ZINC000648570180    0.0500
     30 H30         5.1094    1.3067   50.2023 H       1  ZINC000648570180    0.0700
     31 H31         4.2805    1.7976   47.3688 H       1  ZINC000648570180    0.0500
     32 H32         3.1185    3.1137   47.6624 H       1  ZINC000648570180    0.0500
     33 H33         4.6650    3.0789   48.5430 H       1  ZINC000648570180    0.0500
     34 H34         2.1757    0.6611   47.5916 H       1  ZINC000648570180    0.0600
     35 H35         1.9718   -0.1440   49.1791 H       1  ZINC000648570180    0.0700
     36 H36         0.6929    2.4652   48.1930 H       1  ZINC000648570180    0.0700
     37 H37        -0.1036    1.0601   48.9755 H       1  ZINC000648570180    0.0700
     38 H38         0.5319    3.2032   50.4831 H       1  ZINC000648570180    0.0700
     39 H39         0.8681    1.5629   51.1207 H       1  ZINC000648570180    0.0700
     40 H40         5.4085    2.4128   51.4386 H       1  ZINC000648570180    0.0900
     41 H41         4.5677    3.9933   51.3198 H       1  ZINC000648570180    0.0800
     42 H42         5.3332    2.4118   53.7674 H       1  ZINC000648570180    0.0800
     43 H43         5.1519    4.1778   53.5742 H       1  ZINC000648570180    0.0700
     44 H44         2.0238    1.8862   57.3628 H       1  ZINC000648570180    0.1600
     45 H45        -0.3749    1.7724   58.0104 H       1  ZINC000648570180    0.1800
     46 H46        -0.6271    4.7066   52.7137 H       1  ZINC000648570180    0.1000
     47 H47        -1.1127    2.9955   52.9448 H       1  ZINC000648570180    0.0500
     48 H48        -2.9053    5.4245   52.3889 H       1  ZINC000648570180    0.0800
     49 H49        -2.9160    3.8241   51.5776 H       1  ZINC000648570180    0.0800
     50 H50        -4.5973    4.4832   53.7104 H       1  ZINC000648570180    0.0800
     51 H51        -4.0863    2.8101   53.3332 H       1  ZINC000648570180    0.0700
     52 H52        -2.8498    2.7441   55.2591 H       1  ZINC000648570180    0.0900
     53 H53        -3.3901    4.4004   55.6544 H       1  ZINC000648570180    0.0900
     54 H54         1.9942    3.8917   52.4784 H       1  ZINC000648570180    0.0700
     55 H55         1.5964    2.2637   53.1076 H       1  ZINC000648570180    0.0800
@<TRIPOS>BOND
     1     1     2    1
     2     1    28    1
     3     1    29    1
     4     1    30    1
     5     2     7    1
     6     2     3    1
     7     2     4    1
     8     3    31    1
     9     3    32    1
    10     3    33    1
    11     4     5    1
    12     4    34    1
    13     4    35    1
    14     5     6    1
    15     5    36    1
    16     5    37    1
    17     6     7    1
    18     6    38    1
    19     6    39    1
    20     7     8    1
    21     7     9    1
    22     9    10    1
    23     9    27    1
    24     9    11    1
    25    11    12    1
    26    11    40    1
    27    11    41    1
    28    12    13    1
    29    12    42    1
    30    12    43    1
    31    13    14   am
    32    13    27    1
    33    14    15    2
    34    14    16    1
    35    16    26   ar
    36    16    17   ar
    37    17    18   ar
    38    17    44    1
    39    18    19   ar
    40    18    45    1
    41    19    20   ar
    42    20    21    1
    43    20    26   ar
    44    21    25    1
    45    21    22    1
    46    22    23    1
    47    22    46    1
    48    22    47    1
    49    23    24    1
    50    23    48    1
    51    23    49    1
    52    24    25    1
    53    24    50    1
    54    24    51    1
    55    25    52    1
    56    25    53    1
    57    27    54    1
    58    27    55    1
@<TRIPOS>SUBSTRUCTURE
     1 ZINC000648570180        1 TEMP              0 ****  ****    0 ROOT


##########                                Name:    ZINC001016082614
##########                DOCK_Rotatable_Bonds:                   6
##########                         Heavy_Atoms:                  25
##########                    Molecular_Weight:             348.402
##########                DOCK_Rotatable_Bonds:                   6
##########                       Formal_Charge:         -0.00999998
##########                     HBond_Acceptors:                   8
##########                        HBond_Donors:                   1
##########                         Heavy_Atoms:                  25
##########                          Grid_Score:          -23.731716
##########                     Grid_vdw_energy:          -22.127502
##########                      Grid_es_energy:           -1.604213
##########           Internal_energy_repulsive:           30.051865

@<TRIPOS>MOLECULE
ZINC001016082614
 49 51 1 0 0
SMALL
USER_CHARGES


@<TRIPOS>ATOM
      1 C1        -14.2368   -0.1527   61.2214 C.3     1  ZINC001016082614   -0.1700
      2 C2        -13.0403   -1.0766   60.9850 C.3     1  ZINC001016082614    0.1000
      3 N3        -12.4587   -0.7956   59.6701 N.am    1  ZINC001016082614   -0.6100
      4 C4        -13.0990   -1.1904   58.5517 C.2     1  ZINC001016082614    0.6100
      5 O5        -12.6161   -0.9570   57.4596 O.2     1  ZINC001016082614   -0.5100
      6 C6        -14.3785   -1.9016   58.6512 C.2     1  ZINC001016082614   -0.1100
      7 C7        -15.5502   -1.5570   58.0453 C.2     1  ZINC001016082614    0.0600
      8 N8        -16.4655   -2.4662   58.3961 N.2     1  ZINC001016082614   -0.4900
      9 C9        -15.9098   -3.3465   59.1848 C.2     1  ZINC001016082614    0.2000
     10 O10       -14.6226   -3.0301   59.3574 O.3     1  ZINC001016082614   -0.1900
     11 C11       -11.1812   -0.0855   59.5707 C.3     1  ZINC001016082614    0.1600
     12 H12       -10.9138   -0.0026   58.5173 H       1  ZINC001016082614    0.0800
     13 C13       -11.3628    1.3197   60.1365 C.3     1  ZINC001016082614   -0.1300
     14 C14       -10.3585    2.2487   59.5001 C.3     1  ZINC001016082614   -0.1300
     15 C15        -9.0789    2.3094   60.3539 C.3     1  ZINC001016082614    0.1000
     16 N16        -8.6978    0.9840   60.8801 N.am    1  ZINC001016082614   -0.6000
     17 C17        -8.2751    0.8928   62.1565 C.2     1  ZINC001016082614    0.5000
     18 O18        -7.9559   -0.1840   62.6141 O.2     1  ZINC001016082614   -0.5200
     19 C19        -8.1991    2.1289   63.0153 C.3     1  ZINC001016082614    0.1100
     20 H20        -7.8063    2.9654   62.4373 H       1  ZINC001016082614    0.1100
     21 C21        -7.3090    1.8677   64.2505 C.3     1  ZINC001016082614   -0.1200
     22 C22        -8.3536    1.4393   65.3069 C.3     1  ZINC001016082614   -0.1600
     23 C23        -9.6418    2.0764   64.8346 C.2     1  ZINC001016082614    0.5300
     24 O24       -10.6350    2.2223   65.5152 O.2     1  ZINC001016082614   -0.5300
     25 N25        -9.5258    2.4588   63.5490 N.am    1  ZINC001016082614   -0.7100
     26 C26        -8.7598   -0.2204   60.0827 C.3     1  ZINC001016082614    0.1300
     27 C27       -10.1499   -0.8819   60.2532 C.3     1  ZINC001016082614   -0.1600
     28 H28       -14.6695   -0.3617   62.1998 H       1  ZINC001016082614    0.0700
     29 H29       -13.9070    0.8856   61.1843 H       1  ZINC001016082614    0.0500
     30 H30       -14.9862   -0.3237   60.4487 H       1  ZINC001016082614    0.0600
     31 H31       -12.2909   -0.9055   61.7579 H       1  ZINC001016082614    0.0900
     32 H32       -13.3701   -2.1148   61.0222 H       1  ZINC001016082614    0.0900
     33 H33       -15.7099   -0.7054   57.4006 H       1  ZINC001016082614    0.2000
     34 H34       -16.4095   -4.1973   59.6240 H       1  ZINC001016082614    0.2600
     35 H35       -12.3716    1.6714   59.9201 H       1  ZINC001016082614    0.0700
     36 H36       -11.2075    1.3003   61.2152 H       1  ZINC001016082614    0.0800
     37 H37       -10.1107    1.8848   58.5030 H       1  ZINC001016082614    0.0700
     38 H38       -10.7886    3.2472   59.4219 H       1  ZINC001016082614    0.0800
     39 H39        -8.2633    2.6953   59.7423 H       1  ZINC001016082614    0.0700
     40 H40        -9.2436    2.9884   61.1906 H       1  ZINC001016082614    0.0800
     41 H41        -6.5983    1.0643   64.0564 H       1  ZINC001016082614    0.1000
     42 H42        -6.7928    2.7770   64.5586 H       1  ZINC001016082614    0.1000
     43 H43        -8.4506    0.3538   65.3292 H       1  ZINC001016082614    0.1100
     44 H44        -8.0788    1.8190   66.2910 H       1  ZINC001016082614    0.1100
     45 H45       -10.2284    2.8954   63.0423 H       1  ZINC001016082614    0.4200
     46 H46        -8.6011    0.0302   59.0338 H       1  ZINC001016082614    0.0800
     47 H47        -7.9850   -0.9132   60.4111 H       1  ZINC001016082614    0.0900
     48 H48       -10.3879   -0.9529   61.3144 H       1  ZINC001016082614    0.0900
     49 H49       -10.1281   -1.8831   59.8230 H       1  ZINC001016082614    0.0700
@<TRIPOS>BOND
     1     1     2    1
     2     1    28    1
     3     1    29    1
     4     1    30    1
     5     2     3    1
     6     2    31    1
     7     2    32    1
     8     3     4   am
     9     3    11    1
    10     4     5    2
    11     4     6    1
    12     6    10    1
    13     6     7    2
    14     7     8    1
    15     7    33    1
    16     8     9    2
    17     9    10    1
    18     9    34    1
    19    11    12    1
    20    11    27    1
    21    11    13    1
    22    13    14    1
    23    13    35    1
    24    13    36    1
    25    14    15    1
    26    14    37    1
    27    14    38    1
    28    15    16    1
    29    15    39    1
    30    15    40    1
    31    16    17   am
    32    16    26    1
    33    17    18    2
    34    17    19    1
    35    19    20    1
    36    19    25    1
    37    19    21    1
    38    21    22    1
    39    21    41    1
    40    21    42    1
    41    22    23    1
    42    22    43    1
    43    22    44    1
    44    23    24    2
    45    23    25   am
    46    25    45    1
    47    26    27    1
    48    26    46    1
    49    26    47    1
    50    27    48    1
    51    27    49    1
@<TRIPOS>SUBSTRUCTURE
     1 ZINC001016082614        1 TEMP              0 ****  ****    0 ROOT


##########                                Name:    ZINC001010141213
##########                DOCK_Rotatable_Bonds:                   4
##########                         Heavy_Atoms:                  24
##########                    Molecular_Weight:             330.346
##########                DOCK_Rotatable_Bonds:                   4
##########                       Formal_Charge:          -0.0100003
##########                     HBond_Acceptors:                   9
##########                        HBond_Donors:                   1
##########                         Heavy_Atoms:                  24
##########                          Grid_Score:          -23.700506
##########                     Grid_vdw_energy:          -21.984575
##########                      Grid_es_energy:           -1.715931
##########           Internal_energy_repulsive:           16.054697

@<TRIPOS>MOLECULE
ZINC001010141213
 42 44 1 0 0
SMALL
USER_CHARGES


@<TRIPOS>ATOM
      1 C1          0.1622    5.4633   54.7154 C.3     1  ZINC001010141213   -0.0800
      2 C2          0.2354    4.4266   55.8067 C.2     1  ZINC001010141213   -0.1500
      3 C3         -0.7012    4.1821   56.7959 C.2     1  ZINC001010141213   -0.0400
      4 C4         -1.9779    4.8860   56.9969 C.2     1  ZINC001010141213    0.6000
      5 O5         -2.0340    5.8415   57.7473 O.2     1  ZINC001010141213   -0.5100
      6 N6         -3.0850    4.4718   56.3493 N.am    1  ZINC001010141213   -0.6100
      7 C7         -4.3653    5.1689   56.5356 C.3     1  ZINC001010141213    0.0900
      8 C8         -4.8938    5.5986   55.1614 C.3     1  ZINC001010141213    0.0700
      9 N9         -4.8422    4.4422   54.2559 N.am    1  ZINC001010141213   -0.6000
     10 C10        -5.9490    4.0288   53.6075 C.2     1  ZINC001010141213    0.5900
     11 O11        -7.0023    4.6137   53.7692 O.2     1  ZINC001010141213   -0.5200
     12 C12        -5.8822    2.8635   52.6994 C.2     1  ZINC001010141213    0.0300
     13 N13        -5.1783    2.9356   51.5922 N.2     1  ZINC001010141213   -0.1800
     14 N14        -5.0888    1.9523   50.7715 N.am    1  ZINC001010141213   -0.4400
     15 C15        -5.7138    0.7816   50.9965 C.2     1  ZINC001010141213    0.4800
     16 O16        -5.6088   -0.1341   50.1974 O.2     1  ZINC001010141213   -0.5100
     17 C17        -6.4920    0.6204   52.1645 C.2     1  ZINC001010141213   -0.1800
     18 C18        -6.5722    1.6719   53.0286 C.2     1  ZINC001010141213   -0.0400
     19 C19        -3.5619    3.7451   54.0696 C.3     1  ZINC001010141213    0.1000
     20 C20        -3.0321    3.3189   55.4394 C.3     1  ZINC001010141213    0.1000
     21 N21        -0.2032    3.1564   57.5482 N.pl3   1  ZINC001010141213   -0.2700
     22 C22        -0.8665    2.5636   58.7121 C.3     1  ZINC001010141213    0.0900
     23 N23         0.9352    2.7908   57.0790 N.2     1  ZINC001010141213   -0.2800
     24 C24         1.2599    3.5043   56.0312 C.2     1  ZINC001010141213    0.0100
     25 H25        -0.3301    5.0367   53.8415 H       1  ZINC001010141213    0.0700
     26 H26        -0.4063    6.3235   55.0689 H       1  ZINC001010141213    0.0600
     27 H27         1.1700    5.7795   54.4465 H       1  ZINC001010141213    0.0700
     28 H28        -5.0816    4.4979   57.0095 H       1  ZINC001010141213    0.0800
     29 H29        -4.2151    6.0488   57.1611 H       1  ZINC001010141213    0.1000
     30 H30        -5.9236    5.9428   55.2568 H       1  ZINC001010141213    0.1400
     31 H31        -4.2724    6.4016   54.7651 H       1  ZINC001010141213    0.0800
     32 H32        -4.5565    2.0560   49.9672 H       1  ZINC001010141213    0.4500
     33 H33        -7.0036   -0.3085   52.3688 H       1  ZINC001010141213    0.1700
     34 H34        -7.1535    1.6005   53.9359 H       1  ZINC001010141213    0.1700
     35 H35        -3.7120    2.8652   53.4440 H       1  ZINC001010141213    0.1100
     36 H36        -2.8455    4.4162   53.5955 H       1  ZINC001010141213    0.0800
     37 H37        -2.0023    2.9750   55.3425 H       1  ZINC001010141213    0.1100
     38 H38        -3.6525    2.5163   55.8380 H       1  ZINC001010141213    0.0800
     39 H39        -1.4319    1.6854   58.4001 H       1  ZINC001010141213    0.0900
     40 H40        -0.1170    2.2708   59.4475 H       1  ZINC001010141213    0.1000
     41 H41        -1.5442    3.2935   59.1549 H       1  ZINC001010141213    0.0900
     42 H42         2.1631    3.4027   55.4478 H       1  ZINC001010141213    0.1900
@<TRIPOS>BOND
     1     1     2    1
     2     1    25    1
     3     1    26    1
     4     1    27    1
     5     2    24    1
     6     2     3    2
     7     3     4    1
     8     3    21    1
     9     4     5    2
    10     4     6   am
    11     6    20    1
    12     6     7    1
    13     7     8    1
    14     7    28    1
    15     7    29    1
    16     8     9    1
    17     8    30    1
    18     8    31    1
    19     9    10   am
    20     9    19    1
    21    10    11    2
    22    10    12    1
    23    12    18    1
    24    12    13    2
    25    13    14    1
    26    14    15   am
    27    14    32    1
    28    15    16    2
    29    15    17    1
    30    17    18    2
    31    17    33    1
    32    18    34    1
    33    19    20    1
    34    19    35    1
    35    19    36    1
    36    20    37    1
    37    20    38    1
    38    21    22    1
    39    21    23    1
    40    22    39    1
    41    22    40    1
    42    22    41    1
    43    23    24    2
    44    24    42    1
@<TRIPOS>SUBSTRUCTURE
     1 ZINC001010141213        1 TEMP              0 ****  ****    0 ROOT


##########                                Name:    ZINC000541315701
##########                DOCK_Rotatable_Bonds:                   4
##########                         Heavy_Atoms:                  25
##########                    Molecular_Weight:             422.709
##########                DOCK_Rotatable_Bonds:                   4
##########                       Formal_Charge:           0.0300003
##########                     HBond_Acceptors:                   6
##########                        HBond_Donors:                   0
##########                         Heavy_Atoms:                  25
##########                          Grid_Score:          -23.141197
##########                     Grid_vdw_energy:          -21.468731
##########                      Grid_es_energy:           -1.672467
##########           Internal_energy_repulsive:           16.817963

@<TRIPOS>MOLECULE
ZINC000541315701
 42 44 1 0 0
SMALL
USER_CHARGES


@<TRIPOS>ATOM
      1 C1        -12.3376    0.2420   56.5003 C.3     1  ZINC000541315701    0.0800
      2 N2        -12.5395   -0.4753   57.7616 N.am    1  ZINC000541315701   -0.5700
      3 C3        -11.7493   -0.2114   58.8209 C.2     1  ZINC000541315701    0.5400
      4 O4        -11.9164   -0.8052   59.8650 O.2     1  ZINC000541315701   -0.5000
      5 C5        -10.6579    0.8218   58.7080 C.3     1  ZINC000541315701   -0.1100
      6 H6        -10.9139    1.5769   57.9648 H       1  ZINC000541315701    0.1300
      7 C7        -10.3674    1.4720   60.0804 C.3     1  ZINC000541315701   -0.1500
      8 C8         -9.2344    0.6468   60.6495 C.2     1  ZINC000541315701    0.5200
      9 O9         -8.8946    0.6430   61.8137 O.2     1  ZINC000541315701   -0.5200
     10 N10        -8.6594   -0.0817   59.6772 N.am    1  ZINC000541315701   -0.6100
     11 C11        -7.5361   -0.9988   59.8860 C.3     1  ZINC000541315701    0.0900
     12 C12        -9.3017    0.1595   58.3787 C.3     1  ZINC000541315701    0.1900
     13 H13        -9.4591   -0.7833   57.8548 H       1  ZINC000541315701    0.1100
     14 C14        -8.4560    1.0850   57.5425 C.ar    1  ZINC000541315701   -0.0900
     15 C15        -7.6430    2.0203   58.1547 C.ar    1  ZINC000541315701   -0.1000
     16 C16        -6.8664    2.8695   57.3882 C.ar    1  ZINC000541315701   -0.1000
     17 C17        -6.9030    2.7838   56.0095 C.ar    1  ZINC000541315701   -0.1000
     18 C18        -7.7166    1.8476   55.3960 C.ar    1  ZINC000541315701   -0.0300
     19 Cl19       -7.7626    1.7389   53.6640 Cl      1  ZINC000541315701   -0.0600
     20 C20        -8.4891    0.9945   56.1635 C.ar    1  ZINC000541315701   -0.0900
     21 C21       -13.5493   -1.4312   57.8660 C.ar    1  ZINC000541315701    0.3800
     22 N22       -13.2542   -2.7141   57.7310 N.ar    1  ZINC000541315701   -0.4700
     23 C23       -14.1791   -3.6507   57.8229 C.ar    1  ZINC000541315701    0.1300
     24 C24       -15.4980   -3.3223   58.0652 C.ar    1  ZINC000541315701   -0.1600
     25 C25       -15.8503   -1.9876   58.2133 C.ar    1  ZINC000541315701   -0.0400
     26 C26       -14.8570   -1.0282   58.1169 C.ar    1  ZINC000541315701   -0.1300
     27 Br27      -15.2742    0.8061   58.3100 Br      1  ZINC000541315701   -0.0200
     28 H28       -11.2757    0.4473   56.3650 H       1  ZINC000541315701    0.0900
     29 H29       -12.6978   -0.3694   55.6728 H       1  ZINC000541315701    0.0800
     30 H30       -12.8893    1.1818   56.5245 H       1  ZINC000541315701    0.0700
     31 H31       -10.0574    2.5092   59.9531 H       1  ZINC000541315701    0.1200
     32 H32       -11.2446    1.4114   60.7246 H       1  ZINC000541315701    0.1100
     33 H33        -7.2513   -0.9909   60.9380 H       1  ZINC000541315701    0.0900
     34 H34        -7.8320   -2.0074   59.5972 H       1  ZINC000541315701    0.0700
     35 H35        -6.6894   -0.6805   59.2778 H       1  ZINC000541315701    0.0600
     36 H36        -7.6147    2.0881   59.2322 H       1  ZINC000541315701    0.1300
     37 H37        -6.2314    3.6002   57.8671 H       1  ZINC000541315701    0.1400
     38 H38        -6.2969    3.4476   55.4108 H       1  ZINC000541315701    0.1400
     39 H39        -9.1242    0.2636   55.6853 H       1  ZINC000541315701    0.1400
     40 H40       -13.9007   -4.6878   57.7067 H       1  ZINC000541315701    0.1700
     41 H41       -16.2482   -4.0959   58.1386 H       1  ZINC000541315701    0.1500
     42 H42       -16.8750   -1.7046   58.4034 H       1  ZINC000541315701    0.1500
@<TRIPOS>BOND
     1     1     2    1
     2     1    28    1
     3     1    29    1
     4     1    30    1
     5     2     3   am
     6     2    21    1
     7     3     4    2
     8     3     5    1
     9     5     6    1
    10     5    12    1
    11     5     7    1
    12     7     8    1
    13     7    31    1
    14     7    32    1
    15     8     9    2
    16     8    10   am
    17    10    11    1
    18    10    12    1
    19    11    33    1
    20    11    34    1
    21    11    35    1
    22    12    13    1
    23    12    14    1
    24    14    20   ar
    25    14    15   ar
    26    15    16   ar
    27    15    36    1
    28    16    17   ar
    29    16    37    1
    30    17    18   ar
    31    17    38    1
    32    18    19    1
    33    18    20   ar
    34    20    39    1
    35    21    26   ar
    36    21    22   ar
    37    22    23   ar
    38    23    24   ar
    39    23    40    1
    40    24    25   ar
    41    24    41    1
    42    25    26   ar
    43    25    42    1
    44    26    27    1
@<TRIPOS>SUBSTRUCTURE
     1 ZINC000541315701        1 TEMP              0 ****  ****    0 ROOT


##########                                Name:    ZINC000950547210
##########                DOCK_Rotatable_Bonds:                   5
##########                         Heavy_Atoms:                  25
##########                    Molecular_Weight:              346.47
##########                DOCK_Rotatable_Bonds:                   5
##########                       Formal_Charge:         5.58794e-07
##########                     HBond_Acceptors:                   5
##########                        HBond_Donors:                   1
##########                         Heavy_Atoms:                  25
##########                          Grid_Score:          -22.797909
##########                     Grid_vdw_energy:          -21.193871
##########                      Grid_es_energy:           -1.604039
##########           Internal_energy_repulsive:           19.890244

@<TRIPOS>MOLECULE
ZINC000950547210
 55 58 1 0 0
SMALL
USER_CHARGES


@<TRIPOS>ATOM
      1 O1        -12.5836   -2.4820   58.7521 O.2     1  ZINC000950547210   -0.5200
      2 C2        -12.3208   -1.8003   57.7840 C.2     1  ZINC000950547210    0.5200
      3 N3        -11.3111   -0.9094   57.8412 N.am    1  ZINC000950547210   -0.7300
      4 C4        -10.5348   -0.7603   59.0746 C.3     1  ZINC000950547210    0.1300
      5 H5        -10.7510   -1.5933   59.7435 H       1  ZINC000950547210    0.0900
      6 C6         -9.0414   -0.7484   58.7398 C.3     1  ZINC000950547210   -0.1300
      7 C7         -8.2285   -0.6256   60.0307 C.3     1  ZINC000950547210   -0.1300
      8 C8         -8.5787    0.6935   60.7264 C.3     1  ZINC000950547210    0.1000
      9 N9        -10.0337    0.7535   60.9216 N.am    1  ZINC000950547210   -0.6100
     10 C10       -10.5537    0.9847   62.1433 C.2     1  ZINC000950547210    0.5600
     11 O11       -11.7598    1.0320   62.2918 O.2     1  ZINC000950547210   -0.5200
     12 C12        -9.6624    1.1798   63.2972 C.2     1  ZINC000950547210   -0.1400
     13 C13        -9.0818    2.3545   63.4633 C.2     1  ZINC000950547210   -0.1500
     14 C14        -8.1501    2.6420   64.6067 C.3     1  ZINC000950547210    0.0900
     15 O15        -8.2886    1.6407   65.6165 O.3     1  ZINC000950547210   -0.3700
     16 C16        -8.2017    0.3067   65.1011 C.3     1  ZINC000950547210    0.0600
     17 C17        -9.4481    0.0365   64.2509 C.3     1  ZINC000950547210   -0.1100
     18 C18       -10.9116    0.5568   59.7599 C.3     1  ZINC000950547210    0.1000
     19 C19       -13.1194   -1.9537   56.5153 C.3     1  ZINC000950547210   -0.1000
     20 H20       -12.6673   -2.7256   55.8924 H       1  ZINC000950547210    0.1000
     21 C21       -13.1293   -0.6259   55.7552 C.3     1  ZINC000950547210   -0.1100
     22 C22       -14.5714   -0.1409   55.5945 C.3     1  ZINC000950547210   -0.0900
     23 C23       -15.3756   -1.1818   54.8132 C.3     1  ZINC000950547210   -0.1100
     24 C24       -15.3658   -2.5095   55.5733 C.3     1  ZINC000950547210   -0.1100
     25 C25       -14.5550   -2.3538   56.8615 C.3     1  ZINC000950547210   -0.0600
     26 C26       -15.1897   -1.2704   57.7357 C.3     1  ZINC000950547210   -0.1300
     27 C27       -15.1995    0.0574   56.9756 C.3     1  ZINC000950547210   -0.1200
     28 H28       -11.0984   -0.3670   57.0656 H       1  ZINC000950547210    0.4000
     29 H29        -8.7761   -1.6747   58.2303 H       1  ZINC000950547210    0.0800
     30 H30        -8.8216    0.0989   58.0904 H       1  ZINC000950547210    0.0700
     31 H31        -8.4664   -1.4596   60.6911 H       1  ZINC000950547210    0.0700
     32 H32        -7.1647   -0.6407   59.7936 H       1  ZINC000950547210    0.0900
     33 H33        -8.0780    0.7407   61.6935 H       1  ZINC000950547210    0.0900
     34 H34        -8.2584    1.5303   60.1056 H       1  ZINC000950547210    0.0700
     35 H35        -9.2842    3.1389   62.7491 H       1  ZINC000950547210    0.1200
     36 H36        -7.1227    2.6489   64.2429 H       1  ZINC000950547210    0.0700
     37 H37        -8.3881    3.6178   65.0301 H       1  ZINC000950547210    0.1100
     38 H38        -7.3066    0.2090   64.4869 H       1  ZINC000950547210    0.0600
     39 H39        -8.1622   -0.4033   65.9272 H       1  ZINC000950547210    0.1000
     40 H40       -10.3159   -0.0684   64.9021 H       1  ZINC000950547210    0.0900
     41 H41        -9.3075   -0.8830   63.6828 H       1  ZINC000950547210    0.0900
     42 H42       -10.7818    1.3823   59.0599 H       1  ZINC000950547210    0.0700
     43 H43       -11.9497    0.5144   60.0894 H       1  ZINC000950547210    0.1000
     44 H44       -12.5563    0.1157   56.3117 H       1  ZINC000950547210    0.0700
     45 H45       -12.6818   -0.7671   54.7713 H       1  ZINC000950547210    0.0700
     46 H46       -14.5784    0.8051   55.0531 H       1  ZINC000950547210    0.0700
     47 H47       -16.4031   -0.8362   54.6988 H       1  ZINC000950547210    0.0600
     48 H48       -14.9282   -1.3230   53.8293 H       1  ZINC000950547210    0.0600
     49 H49       -16.3886   -2.7946   55.8200 H       1  ZINC000950547210    0.0700
     50 H50       -14.9137   -3.2814   54.9505 H       1  ZINC000950547210    0.0600
     51 H51       -14.5480   -3.2997   57.4029 H       1  ZINC000950547210    0.0800
     52 H52       -16.2124   -1.5554   57.9823 H       1  ZINC000950547210    0.0600
     53 H53       -14.6121   -1.1594   58.6534 H       1  ZINC000950547210    0.0900
     54 H54       -14.6266    0.7990   57.5322 H       1  ZINC000950547210    0.0600
     55 H55       -16.2269    0.4030   56.8612 H       1  ZINC000950547210    0.0600
@<TRIPOS>BOND
     1     1     2    2
     2     2     3   am
     3     2    19    1
     4     3     4    1
     5     3    28    1
     6     4     5    1
     7     4    18    1
     8     4     6    1
     9     6     7    1
    10     6    29    1
    11     6    30    1
    12     7     8    1
    13     7    31    1
    14     7    32    1
    15     8     9    1
    16     8    33    1
    17     8    34    1
    18     9    10   am
    19     9    18    1
    20    10    11    2
    21    10    12    1
    22    12    17    1
    23    12    13    2
    24    13    14    1
    25    13    35    1
    26    14    15    1
    27    14    36    1
    28    14    37    1
    29    15    16    1
    30    16    17    1
    31    16    38    1
    32    16    39    1
    33    17    40    1
    34    17    41    1
    35    18    42    1
    36    18    43    1
    37    19    20    1
    38    19    25    1
    39    19    21    1
    40    21    22    1
    41    21    44    1
    42    21    45    1
    43    22    27    1
    44    22    23    1
    45    22    46    1
    46    23    24    1
    47    23    47    1
    48    23    48    1
    49    24    25    1
    50    24    49    1
    51    24    50    1
    52    25    26    1
    53    25    51    1
    54    26    27    1
    55    26    52    1
    56    26    53    1
    57    27    54    1
    58    27    55    1
@<TRIPOS>SUBSTRUCTURE
     1 ZINC000950547210        1 TEMP              0 ****  ****    0 ROOT


##########                                Name:    ZINC000653668607
##########                DOCK_Rotatable_Bonds:                   5
##########                         Heavy_Atoms:                  28
##########                    Molecular_Weight:             379.459
##########                DOCK_Rotatable_Bonds:                   5
##########                       Formal_Charge:          0.00999918
##########                     HBond_Acceptors:                   6
##########                        HBond_Donors:                   2
##########                         Heavy_Atoms:                  28
##########                          Grid_Score:          -22.794197
##########                     Grid_vdw_energy:          -22.149424
##########                      Grid_es_energy:           -0.644773
##########           Internal_energy_repulsive:           13.971666

@<TRIPOS>MOLECULE
ZINC000653668607
 53 56 1 0 0
SMALL
USER_CHARGES


@<TRIPOS>ATOM
      1 C1          2.1217    5.0953   52.2160 C.3     1  ZINC000653668607    0.0300
      2 O2          1.5310    3.9144   51.6696 O.3     1  ZINC000653668607   -0.3200
      3 C3          0.1847    3.7814   51.7990 C.ar    1  ZINC000653668607    0.1300
      4 C4         -0.5456    3.1081   50.8307 C.ar    1  ZINC000653668607   -0.2000
      5 C5         -1.9107    2.9762   50.9729 C.ar    1  ZINC000653668607   -0.0800
      6 C6         -2.5621    3.5114   52.0769 C.ar    1  ZINC000653668607   -0.1000
      7 C7         -4.0528    3.3161   52.1731 C.3     1  ZINC000653668607   -0.0800
      8 C8         -4.6601    4.2992   53.1717 C.3     1  ZINC000653668607   -0.1200
      9 C9         -3.8714    4.2058   54.4832 C.3     1  ZINC000653668607   -0.1100
     10 C10        -2.4827    4.7985   54.2535 C.3     1  ZINC000653668607   -0.0600
     11 H11        -2.5708    5.8753   54.1094 H       1  ZINC000653668607    0.1000
     12 C12        -1.6210    4.5275   55.4598 C.2     1  ZINC000653668607    0.5200
     13 O13        -1.1013    5.4488   56.0532 O.2     1  ZINC000653668607   -0.5100
     14 N14        -1.4278    3.2613   55.8792 N.am    1  ZINC000653668607   -0.6700
     15 C15        -0.6278    3.0097   56.9992 C.ar    1  ZINC000653668607    0.1500
     16 C16        -1.2118    2.8532   58.2498 C.ar    1  ZINC000653668607   -0.1100
     17 C17        -0.4223    2.6047   59.3563 C.ar    1  ZINC000653668607   -0.0900
     18 C18         0.9494    2.5112   59.2229 C.ar    1  ZINC000653668607   -0.1200
     19 C19         1.5397    2.6673   57.9749 C.ar    1  ZINC000653668607    0.1700
     20 N20         2.9295    2.5729   57.8405 N.am    1  ZINC000653668607   -0.5800
     21 C21         3.4941    1.6245   56.8790 C.3     1  ZINC000653668607    0.1100
     22 C22         4.8407    2.1576   56.3785 C.3     1  ZINC000653668607   -0.1500
     23 C23         5.7423    2.4199   57.5895 C.3     1  ZINC000653668607    0.1100
     24 N24         5.0556    3.3252   58.5124 N.am    1  ZINC000653668607   -0.7400
     25 C25         3.7170    3.3573   58.5915 C.2     1  ZINC000653668607    0.7100
     26 O26         3.1970    4.1205   59.3824 O.2     1  ZINC000653668607   -0.5800
     27 C27         0.7494    2.9106   56.8610 C.ar    1  ZINC000653668607   -0.1300
     28 C28        -1.8398    4.1854   53.0369 C.ar    1  ZINC000653668607   -0.0300
     29 C29        -0.4645    4.3125   52.9007 C.ar    1  ZINC000653668607   -0.1500
     30 H30         1.6929    5.9732   51.7326 H       1  ZINC000653668607    0.0600
     31 H31         1.9249    5.1379   53.2873 H       1  ZINC000653668607    0.0600
     32 H32         3.1981    5.0757   52.0449 H       1  ZINC000653668607    0.1000
     33 H33        -0.0472    2.6893   49.9690 H       1  ZINC000653668607    0.1300
     34 H34        -2.4789    2.4521   50.2187 H       1  ZINC000653668607    0.1300
     35 H35        -4.5004    3.4774   51.1924 H       1  ZINC000653668607    0.0800
     36 H36        -4.2614    2.2972   52.4996 H       1  ZINC000653668607    0.0800
     37 H37        -4.5947    5.3125   52.7754 H       1  ZINC000653668607    0.0700
     38 H38        -5.7038    4.0416   53.3519 H       1  ZINC000653668607    0.0800
     39 H39        -4.3864    4.7683   55.2621 H       1  ZINC000653668607    0.0700
     40 H40        -3.7800    3.1619   54.7832 H       1  ZINC000653668607    0.0800
     41 H41        -1.8435    2.5244   55.4047 H       1  ZINC000653668607    0.4100
     42 H42        -2.2839    2.9261   58.3574 H       1  ZINC000653668607    0.1400
     43 H43        -0.8787    2.4837   60.3276 H       1  ZINC000653668607    0.1300
     44 H44         1.5638    2.3169   60.0896 H       1  ZINC000653668607    0.1200
     45 H45         3.6418    0.6593   57.3634 H       1  ZINC000653668607    0.0700
     46 H46         2.8118    1.5100   56.0368 H       1  ZINC000653668607    0.0900
     47 H47         5.3079    1.4187   55.7275 H       1  ZINC000653668607    0.1000
     48 H48         4.6855    3.0867   55.8297 H       1  ZINC000653668607    0.0800
     49 H49         5.9565    1.4782   58.0948 H       1  ZINC000653668607    0.0700
     50 H50         6.6747    2.8766   57.2575 H       1  ZINC000653668607    0.0900
     51 H51         5.5791    3.9166   59.0755 H       1  ZINC000653668607    0.4200
     52 H52         1.2059    3.0319   55.8898 H       1  ZINC000653668607    0.1300
     53 H53         0.1030    4.8340   53.6572 H       1  ZINC000653668607    0.1200
@<TRIPOS>BOND
     1     1     2    1
     2     1    30    1
     3     1    31    1
     4     1    32    1
     5     2     3    1
     6     3    29   ar
     7     3     4   ar
     8     4     5   ar
     9     4    33    1
    10     5     6   ar
    11     5    34    1
    12     6    28   ar
    13     6     7    1
    14     7     8    1
    15     7    35    1
    16     7    36    1
    17     8     9    1
    18     8    37    1
    19     8    38    1
    20     9    10    1
    21     9    39    1
    22     9    40    1
    23    10    11    1
    24    10    12    1
    25    10    28    1
    26    12    13    2
    27    12    14   am
    28    14    15    1
    29    14    41    1
    30    15    27   ar
    31    15    16   ar
    32    16    17   ar
    33    16    42    1
    34    17    18   ar
    35    17    43    1
    36    18    19   ar
    37    18    44    1
    38    19    20    1
    39    19    27   ar
    40    20    25   am
    41    20    21    1
    42    21    22    1
    43    21    45    1
    44    21    46    1
    45    22    23    1
    46    22    47    1
    47    22    48    1
    48    23    24    1
    49    23    49    1
    50    23    50    1
    51    24    25   am
    52    24    51    1
    53    25    26    2
    54    27    52    1
    55    28    29   ar
    56    29    53    1
@<TRIPOS>SUBSTRUCTURE
     1 ZINC000653668607        1 TEMP              0 ****  ****    0 ROOT


##########                                Name:    ZINC000341804698
##########                DOCK_Rotatable_Bonds:                   7
##########                         Heavy_Atoms:                  24
##########                    Molecular_Weight:             342.318
##########                DOCK_Rotatable_Bonds:                   7
##########                       Formal_Charge:                0.02
##########                     HBond_Acceptors:                   8
##########                        HBond_Donors:                   0
##########                         Heavy_Atoms:                  24
##########                          Grid_Score:          -22.793129
##########                     Grid_vdw_energy:          -23.857117
##########                      Grid_es_energy:            1.063989
##########           Internal_energy_repulsive:           13.076541

@<TRIPOS>MOLECULE
ZINC000341804698
 41 42 1 0 0
SMALL
USER_CHARGES


@<TRIPOS>ATOM
      1 C1         -8.1033    2.1646   63.5784 C.3     1  ZINC000341804698    0.0300
      2 O2         -8.1683    1.6801   62.2356 O.3     1  ZINC000341804698   -0.3900
      3 C3         -9.4972    1.4423   61.7671 C.3     1  ZINC000341804698    0.0700
      4 C4         -9.4424    0.8431   60.3603 C.3     1  ZINC000341804698    0.0400
      5 C5         -8.6946    1.7470   59.4711 C.1     1  ZINC000341804698    0.2200
      6 N6         -8.1175    2.4444   58.7849 N.1     1  ZINC000341804698   -0.4200
      7 C7         -8.7412   -0.5162   60.4121 C.3     1  ZINC000341804698   -0.1200
      8 C8         -8.6575   -1.0972   58.9971 C.3     1  ZINC000341804698    0.1100
      9 N9        -10.0087   -1.1368   58.4213 N.am    1  ZINC000341804698   -0.6000
     10 C10       -10.5075   -2.2834   57.9185 C.2     1  ZINC000341804698    0.5700
     11 O11        -9.8381   -3.2978   57.9385 O.2     1  ZINC000341804698   -0.5200
     12 C12       -11.8690   -2.3074   57.3424 C.ar    1  ZINC000341804698   -0.0900
     13 C13       -12.0931   -1.8192   56.0543 C.ar    1  ZINC000341804698   -0.1100
     14 C14       -13.3651   -1.8431   55.5197 C.ar    1  ZINC000341804698   -0.0800
     15 C15       -14.4198   -2.3494   56.2562 C.ar    1  ZINC000341804698   -0.1700
     16 C16       -14.2066   -2.8368   57.5388 C.ar    1  ZINC000341804698    0.1100
     17 O17       -15.2472   -3.3330   58.2586 O.3     1  ZINC000341804698   -0.3100
     18 C18       -15.5056   -2.7279   59.5272 C.3     1  ZINC000341804698    0.6000
     19 F19       -16.8750   -2.7943   59.8054 F       1  ZINC000341804698   -0.1600
     20 F20       -14.7941   -3.4077   60.5216 F       1  ZINC000341804698   -0.1300
     21 F21       -15.1004   -1.3893   59.4964 F       1  ZINC000341804698   -0.1600
     22 C22       -12.9334   -2.8234   58.0824 C.ar    1  ZINC000341804698   -0.0700
     23 C23       -10.8059    0.0973   58.4048 C.3     1  ZINC000341804698    0.0900
     24 C24       -10.8656    0.6648   59.8263 C.3     1  ZINC000341804698   -0.1200
     25 H25        -8.6436    3.1084   63.6507 H       1  ZINC000341804698    0.0400
     26 H26        -8.5554    1.4348   64.2502 H       1  ZINC000341804698    0.0500
     27 H27        -7.0615    2.3198   63.8587 H       1  ZINC000341804698    0.0900
     28 H28       -10.0002    0.7468   62.4389 H       1  ZINC000341804698    0.0700
     29 H29       -10.0468    2.3833   61.7401 H       1  ZINC000341804698    0.0600
     30 H30        -7.7359   -0.3918   60.8143 H       1  ZINC000341804698    0.1000
     31 H31        -9.3079   -1.1938   61.0507 H       1  ZINC000341804698    0.0900
     32 H32        -8.0160   -0.4673   58.3807 H       1  ZINC000341804698    0.0700
     33 H33        -8.2490   -2.1068   59.0402 H       1  ZINC000341804698    0.1100
     34 H34       -11.2714   -1.4227   55.4763 H       1  ZINC000341804698    0.1400
     35 H35       -13.5373   -1.4647   54.5229 H       1  ZINC000341804698    0.1400
     36 H36       -15.4132   -2.3655   55.8328 H       1  ZINC000341804698    0.1400
     37 H37       -12.7661   -3.2026   59.0797 H       1  ZINC000341804698    0.1500
     38 H38       -10.3396    0.8245   57.7401 H       1  ZINC000341804698    0.0800
     39 H39       -11.8149   -0.1242   58.0571 H       1  ZINC000341804698    0.1100
     40 H40       -11.4122   -0.0239   60.4705 H       1  ZINC000341804698    0.1000
     41 H41       -11.3722    1.6299   59.8118 H       1  ZINC000341804698    0.0900
@<TRIPOS>BOND
     1     1     2    1
     2     1    25    1
     3     1    26    1
     4     1    27    1
     5     2     3    1
     6     3     4    1
     7     3    28    1
     8     3    29    1
     9     4    24    1
    10     4     5    1
    11     4     7    1
    12     5     6    3
    13     7     8    1
    14     7    30    1
    15     7    31    1
    16     8     9    1
    17     8    32    1
    18     8    33    1
    19     9    10   am
    20     9    23    1
    21    10    11    2
    22    10    12    1
    23    12    22   ar
    24    12    13   ar
    25    13    14   ar
    26    13    34    1
    27    14    15   ar
    28    14    35    1
    29    15    16   ar
    30    15    36    1
    31    16    17    1
    32    16    22   ar
    33    17    18    1
    34    18    19    1
    35    18    20    1
    36    18    21    1
    37    22    37    1
    38    23    24    1
    39    23    38    1
    40    23    39    1
    41    24    40    1
    42    24    41    1
@<TRIPOS>SUBSTRUCTURE
     1 ZINC000341804698        1 TEMP              0 ****  ****    0 ROOT


##########                                Name:    ZINC001076281847
##########                DOCK_Rotatable_Bonds:                   4
##########                         Heavy_Atoms:                  24
##########                    Molecular_Weight:             362.883
##########                DOCK_Rotatable_Bonds:                   4
##########                       Formal_Charge:         -0.00999959
##########                     HBond_Acceptors:                   7
##########                        HBond_Donors:                   0
##########                         Heavy_Atoms:                  24
##########                          Grid_Score:          -22.791544
##########                     Grid_vdw_energy:          -21.038694
##########                      Grid_es_energy:           -1.752849
##########           Internal_energy_repulsive:            8.110056

@<TRIPOS>MOLECULE
ZINC001076281847
 43 46 1 0 0
SMALL
USER_CHARGES


@<TRIPOS>ATOM
      1 C1        -16.1442   -1.2884   60.5545 C.3     1  ZINC001076281847   -0.0900
      2 C2        -14.9988   -0.6205   61.2707 C.2     1  ZINC001076281847    0.1400
      3 N3        -15.0434   -0.3776   62.5478 N.2     1  ZINC001076281847   -0.4600
      4 S4        -13.5807    0.3723   62.9657 S.3     1  ZINC001076281847    0.2500
      5 C5        -12.9162    0.3470   61.3789 C.2     1  ZINC001076281847   -0.2100
      6 C6        -11.5704    0.8685   60.9452 C.3     1  ZINC001076281847    0.1200
      7 N7        -10.6463   -0.2579   60.7571 N.3     1  ZINC001076281847   -0.5000
      8 C8         -9.2546    0.2109   60.6689 C.3     1  ZINC001076281847    0.0300
      9 C9         -8.5646   -0.6437   59.5889 C.3     1  ZINC001076281847   -0.1000
     10 H10        -8.0092   -1.4892   59.9949 H       1  ZINC001076281847    0.1200
     11 C11        -7.7015    0.2947   58.7051 C.3     1  ZINC001076281847   -0.1300
     12 C12        -8.7821    1.0211   57.8667 C.3     1  ZINC001076281847    0.1000
     13 N13        -9.8022   -0.0075   57.5944 N.am    1  ZINC001076281847   -0.6000
     14 C14       -10.6628   -0.0034   56.5572 C.2     1  ZINC001076281847    0.5700
     15 O15       -11.4656   -0.9068   56.4302 O.2     1  ZINC001076281847   -0.4900
     16 C16       -10.6303    1.1020   55.5724 C.ar    1  ZINC001076281847   -0.0800
     17 C17       -11.1172    2.3710   55.9001 C.ar    1  ZINC001076281847   -0.1800
     18 C18       -11.0670    3.3736   54.9511 C.ar    1  ZINC001076281847    0.1000
     19 N19       -10.5694    3.1470   53.7517 N.ar    1  ZINC001076281847   -0.4500
     20 C20       -10.0999    1.9668   53.4004 C.ar    1  ZINC001076281847    0.1100
     21 C21       -10.1058    0.9073   54.2894 C.ar    1  ZINC001076281847   -0.0500
     22 Cl22       -9.4844   -0.6434   53.8170 Cl      1  ZINC001076281847   -0.0100
     23 C23        -9.7307   -1.0564   58.6506 C.3     1  ZINC001076281847    0.1000
     24 H24        -9.5764   -2.0447   58.2173 H       1  ZINC001076281847    0.1100
     25 C25       -10.9796   -1.0158   59.5418 C.3     1  ZINC001076281847    0.0200
     26 C26       -13.8529   -0.2436   60.6044 C.2     1  ZINC001076281847   -0.1800
     27 H27       -15.9643   -2.3622   60.5037 H       1  ZINC001076281847    0.0700
     28 H28       -17.0710   -1.1004   61.0965 H       1  ZINC001076281847    0.0800
     29 H29       -16.2259   -0.8856   59.5448 H       1  ZINC001076281847    0.0900
     30 H30       -11.6767    1.4119   60.0064 H       1  ZINC001076281847    0.1000
     31 H31       -11.1765    1.5378   61.7099 H       1  ZINC001076281847    0.1000
     32 H32        -9.2329    1.2624   60.3824 H       1  ZINC001076281847    0.0600
     33 H33        -8.7541    0.0752   61.6277 H       1  ZINC001076281847    0.0900
     34 H34        -7.1422    1.0019   59.3175 H       1  ZINC001076281847    0.0900
     35 H35        -7.0318   -0.2795   58.0649 H       1  ZINC001076281847    0.0800
     36 H36        -9.2150    1.8434   58.4364 H       1  ZINC001076281847    0.0800
     37 H37        -8.3549    1.3883   56.9336 H       1  ZINC001076281847    0.0800
     38 H38       -11.5268    2.5646   56.8805 H       1  ZINC001076281847    0.1800
     39 H39       -11.4412    4.3568   55.1953 H       1  ZINC001076281847    0.1700
     40 H40        -9.7012    1.8263   52.4066 H       1  ZINC001076281847    0.1700
     41 H41       -11.2856   -2.0311   59.7942 H       1  ZINC001076281847    0.1000
     42 H42       -11.7891   -0.5062   59.0190 H       1  ZINC001076281847    0.0700
     43 H43       -13.7170   -0.4017   59.5447 H       1  ZINC001076281847    0.1400
@<TRIPOS>BOND
     1     1     2    1
     2     1    27    1
     3     1    28    1
     4     1    29    1
     5     2    26    1
     6     2     3    2
     7     3     4    1
     8     4     5    1
     9     5     6    1
    10     5    26    2
    11     6     7    1
    12     6    30    1
    13     6    31    1
    14     7    25    1
    15     7     8    1
    16     8     9    1
    17     8    32    1
    18     8    33    1
    19     9    10    1
    20     9    23    1
    21     9    11    1
    22    11    12    1
    23    11    34    1
    24    11    35    1
    25    12    13    1
    26    12    36    1
    27    12    37    1
    28    13    14   am
    29    13    23    1
    30    14    15    2
    31    14    16    1
    32    16    21   ar
    33    16    17   ar
    34    17    18   ar
    35    17    38    1
    36    18    19   ar
    37    18    39    1
    38    19    20   ar
    39    20    21   ar
    40    20    40    1
    41    21    22    1
    42    23    24    1
    43    23    25    1
    44    25    41    1
    45    25    42    1
    46    26    43    1
@<TRIPOS>SUBSTRUCTURE
     1 ZINC001076281847        1 TEMP              0 ****  ****    0 ROOT


##########                                Name:    ZINC000482962466
##########                DOCK_Rotatable_Bonds:                   2
##########                         Heavy_Atoms:                  25
##########                    Molecular_Weight:             404.303
##########                DOCK_Rotatable_Bonds:                   2
##########                       Formal_Charge:           0.0200002
##########                     HBond_Acceptors:                   4
##########                        HBond_Donors:                   0
##########                         Heavy_Atoms:                  25
##########                          Grid_Score:          -22.623096
##########                     Grid_vdw_energy:          -22.434954
##########                      Grid_es_energy:           -0.188142
##########           Internal_energy_repulsive:            7.142702

@<TRIPOS>MOLECULE
ZINC000482962466
 47 50 1 0 0
SMALL
USER_CHARGES


@<TRIPOS>ATOM
      1 C1        -16.4855   -0.8600   53.1681 C.3     1  ZINC000482962466   -0.1400
      2 C2        -15.0539   -0.4354   52.8344 C.3     1  ZINC000482962466    0.0700
      3 H3        -14.5701   -1.2162   52.2476 H       1  ZINC000482962466    0.0700
      4 C4        -14.2705   -0.2107   54.1327 C.3     1  ZINC000482962466    0.0800
      5 N5        -12.9636    0.3734   53.7921 N.am    1  ZINC000482962466   -0.6100
      6 C6        -11.8210   -0.1532   54.2755 C.2     1  ZINC000482962466    0.5600
      7 O7        -11.8604   -1.1251   55.0047 O.2     1  ZINC000482962466   -0.5200
      8 C8        -10.5205    0.4509   53.9194 C.ar    1  ZINC000482962466   -0.1100
      9 C9        -10.1919    1.7320   54.3974 C.ar    1  ZINC000482962466   -0.0700
     10 C10        -9.0034    2.3081   54.0841 C.ar    1  ZINC000482962466   -0.1000
     11 C11        -8.0816    1.6231   53.2715 C.ar    1  ZINC000482962466   -0.0400
     12 C12        -6.8457    2.1988   52.9341 C.ar    1  ZINC000482962466   -0.0700
     13 C13        -5.9732    1.5112   52.1455 C.ar    1  ZINC000482962466   -0.0800
     14 Br14       -4.3107    2.2918   51.6954 Br      1  ZINC000482962466   -0.0400
     15 C15        -6.2875    0.2400   51.6655 C.ar    1  ZINC000482962466   -0.1000
     16 C16        -7.4752   -0.3493   51.9712 C.ar    1  ZINC000482962466   -0.0900
     17 C17        -8.4012    0.3302   52.7834 C.ar    1  ZINC000482962466   -0.0500
     18 C18        -9.6317   -0.2513   53.1218 C.ar    1  ZINC000482962466   -0.0700
     19 C19       -12.9413    1.5499   52.9081 C.3     1  ZINC000482962466    0.0700
     20 C20       -13.7910    1.2409   51.6715 C.3     1  ZINC000482962466    0.0800
     21 C21       -13.9449    2.5090   50.8281 C.3     1  ZINC000482962466   -0.1100
     22 C22       -14.7274    2.1704   49.5553 C.3     1  ZINC000482962466   -0.1500
     23 C23       -14.0013    1.0529   48.8018 C.3     1  ZINC000482962466    0.0600
     24 O24       -13.8662   -0.0860   49.6541 O.3     1  ZINC000482962466   -0.3700
     25 C25       -13.1029    0.1584   50.8373 C.3     1  ZINC000482962466    0.0400
     26 O26       -15.0795    0.7805   52.0825 O.3     1  ZINC000482962466   -0.3500
     27 H27       -17.0424   -1.0178   52.2446 H       1  ZINC000482962466    0.0700
     28 H28       -16.4652   -1.7860   53.7429 H       1  ZINC000482962466    0.0800
     29 H29       -16.9687   -0.0788   53.7548 H       1  ZINC000482962466    0.0700
     30 H30       -14.8206    0.4728   54.7796 H       1  ZINC000482962466    0.0800
     31 H31       -14.1253   -1.1628   54.6432 H       1  ZINC000482962466    0.1000
     32 H32       -10.8944    2.2645   55.0215 H       1  ZINC000482962466    0.1400
     33 H33        -8.7655    3.2928   54.4585 H       1  ZINC000482962466    0.1400
     34 H34        -6.5884    3.1827   53.2978 H       1  ZINC000482962466    0.1400
     35 H35        -5.5781   -0.2840   51.0421 H       1  ZINC000482962466    0.1400
     36 H36        -7.7057   -1.3339   51.5921 H       1  ZINC000482962466    0.1400
     37 H37        -9.8861   -1.2366   52.7601 H       1  ZINC000482962466    0.1400
     38 H38       -13.3556    2.4111   53.4325 H       1  ZINC000482962466    0.0900
     39 H39       -11.9159    1.7622   52.6054 H       1  ZINC000482962466    0.1000
     40 H40       -14.4862    3.2632   51.3992 H       1  ZINC000482962466    0.0800
     41 H41       -12.9596    2.8903   50.5599 H       1  ZINC000482962466    0.0800
     42 H42       -15.7305    1.8379   49.8220 H       1  ZINC000482962466    0.0800
     43 H43       -14.7921    3.0548   48.9214 H       1  ZINC000482962466    0.0800
     44 H44       -14.5758    0.7786   47.9170 H       1  ZINC000482962466    0.1000
     45 H45       -13.0133    1.4004   48.5002 H       1  ZINC000482962466    0.0500
     46 H46       -12.1025    0.4925   50.5622 H       1  ZINC000482962466    0.0600
     47 H47       -13.0321   -0.7598   51.4204 H       1  ZINC000482962466    0.1000
@<TRIPOS>BOND
     1     1     2    1
     2     1    27    1
     3     1    28    1
     4     1    29    1
     5     2     3    1
     6     2    26    1
     7     2     4    1
     8     4     5    1
     9     4    30    1
    10     4    31    1
    11     5     6   am
    12     5    19    1
    13     6     7    2
    14     6     8    1
    15     8    18   ar
    16     8     9   ar
    17     9    10   ar
    18     9    32    1
    19    10    11   ar
    20    10    33    1
    21    11    17   ar
    22    11    12   ar
    23    12    13   ar
    24    12    34    1
    25    13    14    1
    26    13    15   ar
    27    15    16   ar
    28    15    35    1
    29    16    17   ar
    30    16    36    1
    31    17    18   ar
    32    18    37    1
    33    19    20    1
    34    19    38    1
    35    19    39    1
    36    20    25    1
    37    20    21    1
    38    20    26    1
    39    21    22    1
    40    21    40    1
    41    21    41    1
    42    22    23    1
    43    22    42    1
    44    22    43    1
    45    23    24    1
    46    23    44    1
    47    23    45    1
    48    24    25    1
    49    25    46    1
    50    25    47    1
@<TRIPOS>SUBSTRUCTURE
     1 ZINC000482962466        1 TEMP              0 ****  ****    0 ROOT


##########                                Name:    ZINC000187810810
##########                DOCK_Rotatable_Bonds:                   7
##########                         Heavy_Atoms:                  27
##########                    Molecular_Weight:             386.414
##########                DOCK_Rotatable_Bonds:                   7
##########                       Formal_Charge:           0.0599998
##########                     HBond_Acceptors:                   8
##########                        HBond_Donors:                   1
##########                         Heavy_Atoms:                  27
##########                          Grid_Score:          -22.608517
##########                     Grid_vdw_energy:          -20.714445
##########                      Grid_es_energy:           -1.894072
##########           Internal_energy_repulsive:           47.904728

@<TRIPOS>MOLECULE
ZINC000187810810
 52 53 1 0 0
SMALL
USER_CHARGES


@<TRIPOS>ATOM
      1 C1        -12.2935   -0.4339   54.8334 C.3     1  ZINC000187810810   -0.1800
      2 C2        -10.8725   -0.3284   55.3910 C.3     1  ZINC000187810810    0.1400
      3 C3        -10.6728   -1.3831   56.4811 C.3     1  ZINC000187810810   -0.1800
      4 C4         -9.8640   -0.5620   54.2644 C.3     1  ZINC000187810810   -0.1400
      5 O5        -10.6709    0.9944   55.9546 O.3     1  ZINC000187810810   -0.3600
      6 C6         -9.4679    1.2482   56.5033 C.2     1  ZINC000187810810    0.6500
      7 O7         -9.2005    0.8166   57.6073 O.2     1  ZINC000187810810   -0.5600
      8 N8         -8.5603    1.9809   55.8282 N.am    1  ZINC000187810810   -0.6000
      9 C9         -7.2404    2.2595   56.4107 C.3     1  ZINC000187810810    0.1100
     10 C10        -7.0028    3.7728   56.3920 C.3     1  ZINC000187810810   -0.1400
     11 C11        -7.1833    4.2960   54.9651 C.3     1  ZINC000187810810    0.1800
     12 C12        -6.9129    5.8016   54.9363 C.3     1  ZINC000187810810   -0.1600
     13 N13        -6.2429    3.6140   54.0727 N.am    1  ZINC000187810810   -0.7100
     14 C14        -6.1810    3.9560   52.7704 C.2     1  ZINC000187810810    0.5500
     15 O15        -6.9065    4.8292   52.3362 O.2     1  ZINC000187810810   -0.5100
     16 C16        -5.2306    3.2689   51.8700 C.ar    1  ZINC000187810810   -0.0900
     17 C17        -5.6996    2.5749   50.7537 C.ar    1  ZINC000187810810   -0.0900
     18 C18        -4.8073    1.9362   49.9173 C.ar    1  ZINC000187810810   -0.0900
     19 C19        -3.4505    1.9823   50.1834 C.ar    1  ZINC000187810810   -0.0900
     20 C20        -2.9790    2.6683   51.2888 C.ar    1  ZINC000187810810   -0.0800
     21 C21        -3.8598    3.3163   52.1296 C.ar    1  ZINC000187810810   -0.1300
     22 C22        -3.3446    4.0632   53.3328 C.3     1  ZINC000187810810    0.5200
     23 F23        -1.9604    4.2324   53.2191 F       1  ZINC000187810810   -0.1800
     24 F24        -3.9631    5.3161   53.4041 F       1  ZINC000187810810   -0.1600
     25 F25        -3.6316    3.3348   54.4922 F       1  ZINC000187810810   -0.1600
     26 C26        -8.6157    4.0262   54.4985 C.3     1  ZINC000187810810   -0.1500
     27 C27        -8.8695    2.5111   54.4933 C.3     1  ZINC000187810810    0.1300
     28 H28       -13.0120   -0.2676   55.6359 H       1  ZINC000187810810    0.0900
     29 H29       -12.4357    0.3175   54.0568 H       1  ZINC000187810810    0.0600
     30 H30       -12.4449   -1.4270   54.4102 H       1  ZINC000187810810    0.0700
     31 H31       -10.8242   -2.3762   56.0580 H       1  ZINC000187810810    0.0700
     32 H32        -9.6605   -1.3080   56.8783 H       1  ZINC000187810810    0.0600
     33 H33       -11.3913   -1.2168   57.2837 H       1  ZINC000187810810    0.0900
     34 H34       -10.0063    0.1895   53.4877 H       1  ZINC000187810810    0.0700
     35 H35        -8.8518   -0.4868   54.6616 H       1  ZINC000187810810    0.0700
     36 H36       -10.0154   -1.5550   53.8412 H       1  ZINC000187810810    0.0800
     37 H37        -7.2107    1.8976   57.4384 H       1  ZINC000187810810    0.1000
     38 H38        -6.4692    1.7613   55.8231 H       1  ZINC000187810810    0.0700
     39 H39        -7.7192    4.2617   57.0522 H       1  ZINC000187810810    0.0900
     40 H40        -5.9895    3.9861   56.7322 H       1  ZINC000187810810    0.0900
     41 H41        -5.8923    5.9938   55.2675 H       1  ZINC000187810810    0.0600
     42 H42        -7.0414    6.1745   53.9201 H       1  ZINC000187810810    0.0800
     43 H43        -7.6122    6.3092   55.6007 H       1  ZINC000187810810    0.0700
     44 H44        -5.6647    2.9163   54.4189 H       1  ZINC000187810810    0.4000
     45 H45        -6.7587    2.5376   50.5453 H       1  ZINC000187810810    0.1400
     46 H46        -5.1690    1.3988   49.0531 H       1  ZINC000187810810    0.1400
     47 H47        -2.7564    1.4804   49.5258 H       1  ZINC000187810810    0.1400
     48 H48        -1.9186    2.7002   51.4912 H       1  ZINC000187810810    0.1500
     49 H49        -9.3169    4.5127   55.1765 H       1  ZINC000187810810    0.0800
     50 H50        -8.7503    4.4199   53.4910 H       1  ZINC000187810810    0.1000
     51 H51        -8.2308    2.0361   53.7486 H       1  ZINC000187810810    0.0700
     52 H52        -9.9159    2.3167   54.2577 H       1  ZINC000187810810    0.1000
@<TRIPOS>BOND
     1     1     2    1
     2     1    28    1
     3     1    29    1
     4     1    30    1
     5     2     3    1
     6     2     4    1
     7     2     5    1
     8     3    31    1
     9     3    32    1
    10     3    33    1
    11     4    34    1
    12     4    35    1
    13     4    36    1
    14     5     6    1
    15     6     7    2
    16     6     8   am
    17     8    27    1
    18     8     9    1
    19     9    10    1
    20     9    37    1
    21     9    38    1
    22    10    11    1
    23    10    39    1
    24    10    40    1
    25    11    12    1
    26    11    13    1
    27    11    26    1
    28    12    41    1
    29    12    42    1
    30    12    43    1
    31    13    14   am
    32    13    44    1
    33    14    15    2
    34    14    16    1
    35    16    21   ar
    36    16    17   ar
    37    17    18   ar
    38    17    45    1
    39    18    19   ar
    40    18    46    1
    41    19    20   ar
    42    19    47    1
    43    20    21   ar
    44    20    48    1
    45    21    22    1
    46    22    23    1
    47    22    24    1
    48    22    25    1
    49    26    27    1
    50    26    49    1
    51    26    50    1
    52    27    51    1
    53    27    52    1
@<TRIPOS>SUBSTRUCTURE
     1 ZINC000187810810        1 TEMP              0 ****  ****    0 ROOT


##########                                Name:    ZINC000455156110
##########                DOCK_Rotatable_Bonds:                   4
##########                         Heavy_Atoms:                  27
##########                    Molecular_Weight:             370.424
##########                DOCK_Rotatable_Bonds:                   4
##########                       Formal_Charge:           0.0100002
##########                     HBond_Acceptors:                   6
##########                        HBond_Donors:                   1
##########                         Heavy_Atoms:                  27
##########                          Grid_Score:          -22.589117
##########                     Grid_vdw_energy:          -23.715591
##########                      Grid_es_energy:            1.126475
##########           Internal_energy_repulsive:           17.269825

@<TRIPOS>MOLECULE
ZINC000455156110
 50 53 1 0 0
SMALL
USER_CHARGES


@<TRIPOS>ATOM
      1 C1         -7.8676    4.4272   50.1273 C.3     1  ZINC000455156110    0.0300
      2 O2         -7.0844    3.2337   50.1926 O.3     1  ZINC000455156110   -0.3100
      3 C3         -5.8343    3.3433   50.7177 C.ar    1  ZINC000455156110    0.0900
      4 C4         -5.4297    4.5338   51.3009 C.ar    1  ZINC000455156110   -0.1600
      5 C5         -4.1602    4.6460   51.8348 C.ar    1  ZINC000455156110   -0.0800
      6 C6         -3.7213    5.9411   52.4680 C.3     1  ZINC000455156110   -0.1100
      7 C7         -3.2892    3.5664   51.7882 C.ar    1  ZINC000455156110    0.1500
      8 N8         -2.0021    3.6804   52.3306 N.am    1  ZINC000455156110   -0.6700
      9 C9         -1.8182    3.5610   53.6604 C.2     1  ZINC000455156110    0.7200
     10 O10        -2.7691    3.3543   54.3895 O.2     1  ZINC000455156110   -0.5500
     11 N11        -0.5803    3.6707   54.1820 N.am    1  ZINC000455156110   -0.5600
     12 C12         0.6391    3.9248   53.4080 C.3     1  ZINC000455156110    0.1000
     13 C13         1.7678    3.9620   54.4454 C.3     1  ZINC000455156110   -0.0200
     14 C14         2.7882    2.8633   54.1572 C.3     1  ZINC000455156110   -0.1400
     15 C15         3.4889    3.1636   52.8285 C.3     1  ZINC000455156110    0.0600
     16 O16         4.0911    4.4581   52.8921 O.3     1  ZINC000455156110   -0.3800
     17 C17         3.1639    5.5261   53.0967 C.3     1  ZINC000455156110    0.0600
     18 C18         2.4493    5.3285   54.4372 C.3     1  ZINC000455156110   -0.1400
     19 C19         1.0893    3.7187   55.7700 C.ar    1  ZINC000455156110   -0.1300
     20 C20         1.5959    3.6417   57.0530 C.ar    1  ZINC000455156110   -0.0700
     21 C21         0.7508    3.4056   58.1215 C.ar    1  ZINC000455156110   -0.1400
     22 C22        -0.6053    3.2461   57.9039 C.ar    1  ZINC000455156110   -0.0900
     23 C23        -1.1159    3.3211   56.6254 C.ar    1  ZINC000455156110   -0.1300
     24 C24        -0.2705    3.5650   55.5421 C.ar    1  ZINC000455156110    0.1600
     25 C25        -3.6937    2.3730   51.2047 C.ar    1  ZINC000455156110   -0.1200
     26 C26        -4.9654    2.2599   50.6747 C.ar    1  ZINC000455156110    0.0900
     27 F27        -5.3602    1.0992   50.1071 F       1  ZINC000455156110   -0.1300
     28 H28        -8.8396    4.2004   49.6893 H       1  ZINC000455156110    0.1000
     29 H29        -8.0060    4.8262   51.1322 H       1  ZINC000455156110    0.0600
     30 H30        -7.3545    5.1652   49.5108 H       1  ZINC000455156110    0.0600
     31 H31        -6.1070    5.3742   51.3378 H       1  ZINC000455156110    0.1400
     32 H32        -3.9688    5.9288   53.5295 H       1  ZINC000455156110    0.0800
     33 H33        -2.6442    6.0579   52.3475 H       1  ZINC000455156110    0.0600
     34 H34        -4.2332    6.7735   51.9852 H       1  ZINC000455156110    0.0800
     35 H35        -1.2436    3.8452   51.7490 H       1  ZINC000455156110    0.4100
     36 H36         0.8084    3.1197   52.6929 H       1  ZINC000455156110    0.0800
     37 H37         0.5674    4.8821   52.8918 H       1  ZINC000455156110    0.0900
     38 H38         3.5259    2.8320   54.9590 H       1  ZINC000455156110    0.0800
     39 H39         2.2793    1.9017   54.0916 H       1  ZINC000455156110    0.0800
     40 H40         4.2581    2.4133   52.6454 H       1  ZINC000455156110    0.1000
     41 H41         2.7589    3.1415   52.0194 H       1  ZINC000455156110    0.0500
     42 H42         3.6991    6.4756   53.1064 H       1  ZINC000455156110    0.1000
     43 H43         2.4301    5.5301   52.2906 H       1  ZINC000455156110    0.0500
     44 H44         1.7007    6.1097   54.5696 H       1  ZINC000455156110    0.0800
     45 H45         3.1760    5.3779   55.2481 H       1  ZINC000455156110    0.0800
     46 H46         2.6553    3.7659   57.2218 H       1  ZINC000455156110    0.1300
     47 H47         1.1490    3.3455   59.1235 H       1  ZINC000455156110    0.1300
     48 H48        -1.2664    3.0619   58.7378 H       1  ZINC000455156110    0.1300
     49 H49        -2.1760    3.1951   56.4619 H       1  ZINC000455156110    0.1400
     50 H50        -3.0165    1.5325   51.1682 H       1  ZINC000455156110    0.1700
@<TRIPOS>BOND
     1     1     2    1
     2     1    28    1
     3     1    29    1
     4     1    30    1
     5     2     3    1
     6     3    26   ar
     7     3     4   ar
     8     4     5   ar
     9     4    31    1
    10     5     6    1
    11     5     7   ar
    12     6    32    1
    13     6    33    1
    14     6    34    1
    15     7     8    1
    16     7    25   ar
    17     8     9   am
    18     8    35    1
    19     9    10    2
    20     9    11   am
    21    11    24    1
    22    11    12    1
    23    12    13    1
    24    12    36    1
    25    12    37    1
    26    13    18    1
    27    13    14    1
    28    13    19    1
    29    14    15    1
    30    14    38    1
    31    14    39    1
    32    15    16    1
    33    15    40    1
    34    15    41    1
    35    16    17    1
    36    17    18    1
    37    17    42    1
    38    17    43    1
    39    18    44    1
    40    18    45    1
    41    19    24   ar
    42    19    20   ar
    43    20    21   ar
    44    20    46    1
    45    21    22   ar
    46    21    47    1
    47    22    23   ar
    48    22    48    1
    49    23    24   ar
    50    23    49    1
    51    25    26   ar
    52    25    50    1
    53    26    27    1
@<TRIPOS>SUBSTRUCTURE
     1 ZINC000455156110        1 TEMP              0 ****  ****    0 ROOT


##########                                Name:    ZINC001091652821
##########                DOCK_Rotatable_Bonds:                   4
##########                         Heavy_Atoms:                  24
##########                    Molecular_Weight:             345.465
##########                DOCK_Rotatable_Bonds:                   4
##########                       Formal_Charge:          -0.0199997
##########                     HBond_Acceptors:                   6
##########                        HBond_Donors:                   0
##########                         Heavy_Atoms:                  24
##########                          Grid_Score:          -22.256193
##########                     Grid_vdw_energy:          -20.900124
##########                      Grid_es_energy:           -1.356069
##########           Internal_energy_repulsive:            4.148177

@<TRIPOS>MOLECULE
ZINC001091652821
 47 50 1 0 0
SMALL
USER_CHARGES


@<TRIPOS>ATOM
      1 C1         -7.5703    3.7190   53.5098 C.3     1  ZINC001091652821   -0.1000
      2 C2         -7.6424    3.7322   55.0149 C.2     1  ZINC001091652821   -0.1200
      3 C3         -7.7711    4.8635   55.7178 C.2     1  ZINC001091652821   -0.2400
      4 S4         -7.8227    4.5393   57.3921 S.3     1  ZINC001091652821    0.2100
      5 C5         -7.6636    2.8109   57.1112 C.2     1  ZINC001091652821   -0.2700
      6 C6         -7.6257    1.7800   58.1526 C.2     1  ZINC001091652821    0.6100
      7 O7         -6.6891    1.0049   58.2077 O.2     1  ZINC001091652821   -0.5200
      8 N8         -8.6282    1.6906   59.0490 N.am    1  ZINC001091652821   -0.6200
      9 C9         -9.8277    2.5412   59.1153 C.3     1  ZINC001091652821    0.0900
     10 C10       -10.9557    1.6586   59.6744 C.3     1  ZINC001091652821   -0.0900
     11 H11       -11.5961    2.2038   60.3678 H       1  ZINC001091652821    0.1100
     12 C12       -11.7543    1.0563   58.4996 C.3     1  ZINC001091652821    0.0400
     13 N13       -11.9614   -0.3658   58.8747 N.3     1  ZINC001091652821   -0.5000
     14 C14       -12.2579   -1.1846   57.6916 C.3     1  ZINC001091652821    0.1200
     15 C15       -13.3338   -2.1842   58.0293 C.2     1  ZINC001091652821    0.0000
     16 C16       -13.5491   -3.3567   57.4102 C.2     1  ZINC001091652821   -0.0800
     17 O17       -14.6007   -3.9393   58.0188 O.3     1  ZINC001091652821   -0.2000
     18 C18       -15.0122   -3.1206   58.9960 C.2     1  ZINC001091652821    0.1900
     19 C19       -16.1649   -3.3803   59.9313 C.3     1  ZINC001091652821   -0.0600
     20 N20       -14.2479   -2.0660   59.0086 N.2     1  ZINC001091652821   -0.4700
     21 C21       -10.6733   -0.7710   59.4932 C.3     1  ZINC001091652821    0.0400
     22 C22       -10.2397    0.4640   60.3559 C.3     1  ZINC001091652821   -0.0700
     23 C23       -10.6129    0.2944   61.8300 C.3     1  ZINC001091652821   -0.1300
     24 C24        -8.7405    0.7190   60.1492 C.3     1  ZINC001091652821    0.1200
     25 C25        -7.5867    2.5821   55.7661 C.2     1  ZINC001091652821   -0.0500
     26 H26        -8.5762    3.6347   53.0985 H       1  ZINC001091652821    0.0700
     27 H27        -7.1111    4.6436   53.1599 H       1  ZINC001091652821    0.0700
     28 H28        -6.9714    2.8693   53.1821 H       1  ZINC001091652821    0.0700
     29 H29        -7.8335    5.8503   55.2832 H       1  ZINC001091652821    0.1700
     30 H30        -9.6502    3.3870   59.7797 H       1  ZINC001091652821    0.0800
     31 H31       -10.0898    2.8965   58.1187 H       1  ZINC001091652821    0.0800
     32 H32       -12.7128    1.5641   58.3918 H       1  ZINC001091652821    0.0800
     33 H33       -11.1808    1.1255   57.5753 H       1  ZINC001091652821    0.0500
     34 H34       -12.6010   -0.5414   56.8813 H       1  ZINC001091652821    0.0500
     35 H35       -11.3565   -1.7123   57.3798 H       1  ZINC001091652821    0.1000
     36 H36       -12.9854   -3.7571   56.5805 H       1  ZINC001091652821    0.2100
     37 H37       -16.6180   -4.3423   59.6914 H       1  ZINC001091652821    0.0900
     38 H38       -15.8025   -3.3958   60.9592 H       1  ZINC001091652821    0.1000
     39 H39       -16.9082   -2.5908   59.8200 H       1  ZINC001091652821    0.1000
     40 H40       -10.8167   -1.6407   60.1345 H       1  ZINC001091652821    0.0900
     41 H41        -9.9324   -0.9843   58.7227 H       1  ZINC001091652821    0.0500
     42 H42       -10.1040   -0.5802   62.2352 H       1  ZINC001091652821    0.0600
     43 H43       -10.3094    1.1814   62.3860 H       1  ZINC001091652821    0.0600
     44 H44       -11.6910    0.1610   61.9188 H       1  ZINC001091652821    0.0700
     45 H45        -8.2398   -0.2057   59.8621 H       1  ZINC001091652821    0.0900
     46 H46        -8.2990    1.1157   61.0634 H       1  ZINC001091652821    0.0800
     47 H47        -7.4845    1.5966   55.3364 H       1  ZINC001091652821    0.1500
@<TRIPOS>BOND
     1     1     2    1
     2     1    26    1
     3     1    27    1
     4     1    28    1
     5     2    25    1
     6     2     3    2
     7     3     4    1
     8     3    29    1
     9     4     5    1
    10     5     6    1
    11     5    25    2
    12     6     7    2
    13     6     8   am
    14     8    24    1
    15     8     9    1
    16     9    10    1
    17     9    30    1
    18     9    31    1
    19    10    11    1
    20    10    22    1
    21    10    12    1
    22    12    13    1
    23    12    32    1
    24    12    33    1
    25    13    14    1
    26    13    21    1
    27    14    15    1
    28    14    34    1
    29    14    35    1
    30    15    20    1
    31    15    16    2
    32    16    17    1
    33    16    36    1
    34    17    18    1
    35    18    19    1
    36    18    20    2
    37    19    37    1
    38    19    38    1
    39    19    39    1
    40    21    22    1
    41    21    40    1
    42    21    41    1
    43    22    23    1
    44    22    24    1
    45    23    42    1
    46    23    43    1
    47    23    44    1
    48    24    45    1
    49    24    46    1
    50    25    47    1
@<TRIPOS>SUBSTRUCTURE
     1 ZINC001091652821        1 TEMP              0 ****  ****    0 ROOT


##########                                Name:    ZINC000931749147
##########                DOCK_Rotatable_Bonds:                   5
##########                         Heavy_Atoms:                  25
##########                    Molecular_Weight:             354.397
##########                DOCK_Rotatable_Bonds:                   5
##########                       Formal_Charge:        -4.76837e-07
##########                     HBond_Acceptors:                   7
##########                        HBond_Donors:                   1
##########                         Heavy_Atoms:                  25
##########                          Grid_Score:          -22.188795
##########                     Grid_vdw_energy:          -19.802670
##########                      Grid_es_energy:           -2.386125
##########           Internal_energy_repulsive:           83.012367

@<TRIPOS>MOLECULE
ZINC000931749147
 49 51 1 0 0
SMALL
USER_CHARGES


@<TRIPOS>ATOM
      1 C1          1.3278    2.6670   56.5182 C.3     1  ZINC000931749147   -0.1100
      2 C2         -0.1485    2.9487   56.4073 C.ar    1  ZINC000931749147   -0.1300
      3 C3         -1.0155    2.5119   57.3995 C.ar    1  ZINC000931749147    0.1800
      4 N4         -0.5190    1.8095   58.5047 N.am    1  ZINC000931749147   -0.6800
      5 C5         -0.3494    2.4404   59.6835 C.2     1  ZINC000931749147    0.7100
      6 O6         -0.6275    3.6196   59.7874 O.2     1  ZINC000931749147   -0.5500
      7 N7          0.1283    1.7645   60.7471 N.am    1  ZINC000931749147   -0.6200
      8 C8          0.4716    0.3372   60.6456 C.3     1  ZINC000931749147    0.0700
      9 C9         -0.2103   -0.4074   61.7991 C.3     1  ZINC000931749147    0.0500
     10 O10         0.1144    0.2376   63.0329 O.3     1  ZINC000931749147   -0.3700
     11 C11        -0.3522    1.5855   63.1294 C.3     1  ZINC000931749147    0.0500
     12 C12         0.3278    2.4334   62.0426 C.3     1  ZINC000931749147    0.1300
     13 H13         1.3929    2.5198   62.2571 H       1  ZINC000931749147    0.0900
     14 C14        -0.3047    3.8261   62.0046 C.3     1  ZINC000931749147   -0.1100
     15 C15        -0.2749    4.4381   63.4066 C.3     1  ZINC000931749147   -0.1000
     16 C16         1.1764    4.5614   63.8811 C.3     1  ZINC000931749147   -0.1500
     17 C17         1.2010    5.2462   65.2500 C.3     1  ZINC000931749147    0.0600
     18 O18         0.5687    6.5242   65.1534 O.3     1  ZINC000931749147   -0.3800
     19 C19        -0.8038    6.4678   64.7594 C.3     1  ZINC000931749147    0.0600
     20 C20        -0.9090    5.8320   63.3707 C.3     1  ZINC000931749147   -0.1500
     21 C21        -2.3754    2.7726   57.2952 C.ar    1  ZINC000931749147   -0.1200
     22 C22        -2.8641    3.4658   56.2050 C.ar    1  ZINC000931749147   -0.1100
     23 C23        -1.9996    3.9014   55.2156 C.ar    1  ZINC000931749147    0.0500
     24 F24        -2.4799    4.5794   54.1503 F       1  ZINC000931749147   -0.1300
     25 C25        -0.6403    3.6477   55.3197 C.ar    1  ZINC000931749147    0.0900
     26 F26         0.2023    4.0734   54.3532 F       1  ZINC000931749147   -0.1200
     27 H27         1.8141    3.4824   57.0535 H       1  ZINC000931749147    0.0800
     28 H28         1.4799    1.7341   57.0609 H       1  ZINC000931749147    0.0700
     29 H29         1.7571    2.5807   55.5199 H       1  ZINC000931749147    0.0800
     30 H30        -0.2972    0.8688   58.4219 H       1  ZINC000931749147    0.4100
     31 H31         0.1183   -0.0585   59.6935 H       1  ZINC000931749147    0.0800
     32 H32         1.5523    0.2136   60.7169 H       1  ZINC000931749147    0.0900
     33 H33        -1.2905   -0.3926   61.6538 H       1  ZINC000931749147    0.0600
     34 H34         0.1403   -1.4391   61.8243 H       1  ZINC000931749147    0.1100
     35 H35        -1.4329    1.6075   62.9890 H       1  ZINC000931749147    0.0600
     36 H36        -0.1037    1.9874   64.1116 H       1  ZINC000931749147    0.1100
     37 H37         0.2560    4.4612   61.3189 H       1  ZINC000931749147    0.1100
     38 H38        -1.3373    3.7470   61.6646 H       1  ZINC000931749147    0.0700
     39 H39        -0.8319    3.8017   64.0942 H       1  ZINC000931749147    0.0700
     40 H40         1.6185    3.5685   63.9625 H       1  ZINC000931749147    0.0700
     41 H41         1.7441    5.1565   63.1657 H       1  ZINC000931749147    0.0700
     42 H42         0.6673    4.6306   65.9742 H       1  ZINC000931749147    0.0500
     43 H43         2.2339    5.3753   65.5734 H       1  ZINC000931749147    0.0900
     44 H44        -1.3636    5.8681   65.4772 H       1  ZINC000931749147    0.0500
     45 H45        -1.2151    7.4768   64.7293 H       1  ZINC000931749147    0.0900
     46 H46        -0.3833    6.4528   62.6451 H       1  ZINC000931749147    0.0700
     47 H47        -1.9581    5.7478   63.0872 H       1  ZINC000931749147    0.0700
     48 H48        -3.0510    2.4330   58.0663 H       1  ZINC000931749147    0.1800
     49 H49        -3.9220    3.6681   56.1244 H       1  ZINC000931749147    0.1500
@<TRIPOS>BOND
     1     1     2    1
     2     1    27    1
     3     1    28    1
     4     1    29    1
     5     2    25   ar
     6     2     3   ar
     7     3     4    1
     8     3    21   ar
     9     4     5   am
    10     4    30    1
    11     5     6    2
    12     5     7   am
    13     7    12    1
    14     7     8    1
    15     8     9    1
    16     8    31    1
    17     8    32    1
    18     9    10    1
    19     9    33    1
    20     9    34    1
    21    10    11    1
    22    11    12    1
    23    11    35    1
    24    11    36    1
    25    12    13    1
    26    12    14    1
    27    14    15    1
    28    14    37    1
    29    14    38    1
    30    15    20    1
    31    15    16    1
    32    15    39    1
    33    16    17    1
    34    16    40    1
    35    16    41    1
    36    17    18    1
    37    17    42    1
    38    17    43    1
    39    18    19    1
    40    19    20    1
    41    19    44    1
    42    19    45    1
    43    20    46    1
    44    20    47    1
    45    21    22   ar
    46    21    48    1
    47    22    23   ar
    48    22    49    1
    49    23    24    1
    50    23    25   ar
    51    25    26    1
@<TRIPOS>SUBSTRUCTURE
     1 ZINC000931749147        1 TEMP              0 ****  ****    0 ROOT


##########                                Name:    ZINC000828026236
##########                DOCK_Rotatable_Bonds:                   1
##########                         Heavy_Atoms:                  19
##########                    Molecular_Weight:             383.045
##########                DOCK_Rotatable_Bonds:                   1
##########                       Formal_Charge:                   0
##########                     HBond_Acceptors:                   5
##########                        HBond_Donors:                   0
##########                         Heavy_Atoms:                  19
##########                          Grid_Score:          -22.023029
##########                     Grid_vdw_energy:          -21.781588
##########                      Grid_es_energy:           -0.241441
##########           Internal_energy_repulsive:            5.257588

@<TRIPOS>MOLECULE
ZINC000828026236
 28 30 1 0 0
SMALL
USER_CHARGES


@<TRIPOS>ATOM
      1 N1          2.7922    4.9068   49.5429 N.1     1  ZINC000828026236   -0.3800
      2 C2          2.6920    3.8728   49.0833 C.1     1  ZINC000828026236    0.2600
      3 C3          2.5656    2.5694   48.5040 C.ar    1  ZINC000828026236   -0.0500
      4 C4          3.6308    1.9960   47.8008 C.ar    1  ZINC000828026236    0.0100
      5 C5          3.4577    0.7330   47.2596 C.ar    1  ZINC000828026236   -0.1600
      6 Br6         4.8620   -0.0928   46.2995 Br      1  ZINC000828026236   -0.0100
      7 C7          2.2495    0.0798   47.4273 C.ar    1  ZINC000828026236    0.1800
      8 N8          1.2574    0.6381   48.0941 N.ar    1  ZINC000828026236   -0.5000
      9 C9          1.3711    1.8400   48.6364 C.ar    1  ZINC000828026236    0.3600
     10 N10         0.3036    2.3870   49.3276 N.3     1  ZINC000828026236   -0.4900
     11 C11         0.5272    2.3229   50.7788 C.3     1  ZINC000828026236    0.0500
     12 C12        -0.4647    3.2478   51.4955 C.3     1  ZINC000828026236    0.1100
     13 N13        -1.8086    2.9609   50.9870 N.pl3   1  ZINC000828026236   -0.4400
     14 C14        -3.0114    3.3014   51.5238 C.2     1  ZINC000828026236   -0.0300
     15 Br15       -3.3019    4.2715   53.1207 Br      1  ZINC000828026236    0.0200
     16 C16        -3.9575    2.8117   50.6940 C.2     1  ZINC000828026236    0.0300
     17 N17        -3.3383    2.1887   49.6768 N.2     1  ZINC000828026236   -0.4700
     18 C18        -2.0531    2.2737   49.8424 C.2     1  ZINC000828026236    0.2300
     19 C19        -0.9602    1.7287   48.9540 C.3     1  ZINC000828026236    0.1500
     20 H20         4.5647    2.5254   47.6825 H       1  ZINC000828026236    0.1600
     21 H21         2.1161   -0.9049   47.0045 H       1  ZINC000828026236    0.1800
     22 H22         0.3823    1.2989   51.1232 H       1  ZINC000828026236    0.0700
     23 H23         1.5458    2.6396   51.0033 H       1  ZINC000828026236    0.1100
     24 H24        -0.4305    3.0625   52.5691 H       1  ZINC000828026236    0.1100
     25 H25        -0.2095    4.2881   51.2932 H       1  ZINC000828026236    0.1000
     26 H26        -5.0255    2.9043   50.8250 H       1  ZINC000828026236    0.1800
     27 H27        -1.1926    1.9432   47.9109 H       1  ZINC000828026236    0.1200
     28 H28        -0.8713    0.6520   49.0982 H       1  ZINC000828026236    0.1000
@<TRIPOS>BOND
     1     1     2    3
     2     2     3    1
     3     3     9   ar
     4     3     4   ar
     5     4     5   ar
     6     4    20    1
     7     5     6    1
     8     5     7   ar
     9     7     8   ar
    10     7    21    1
    11     8     9   ar
    12     9    10    1
    13    10    19    1
    14    10    11    1
    15    11    12    1
    16    11    22    1
    17    11    23    1
    18    12    13    1
    19    12    24    1
    20    12    25    1
    21    13    18    1
    22    13    14    1
    23    14    15    1
    24    14    16    2
    25    16    17    1
    26    16    26    1
    27    17    18    2
    28    18    19    1
    29    19    27    1
    30    19    28    1
@<TRIPOS>SUBSTRUCTURE
     1 ZINC000828026236        1 TEMP              0 ****  ****    0 ROOT


##########                                Name:    ZINC000656860804
##########                DOCK_Rotatable_Bonds:                   2
##########                         Heavy_Atoms:                  19
##########                    Molecular_Weight:             388.068
##########                DOCK_Rotatable_Bonds:                   2
##########                       Formal_Charge:          8.9407e-08
##########                     HBond_Acceptors:                   8
##########                        HBond_Donors:                   1
##########                         Heavy_Atoms:                  19
##########                          Grid_Score:          -21.941618
##########                     Grid_vdw_energy:          -21.552355
##########                      Grid_es_energy:           -0.389263
##########           Internal_energy_repulsive:           12.854697

@<TRIPOS>MOLECULE
ZINC000656860804
 28 29 1 0 0
SMALL
USER_CHARGES


@<TRIPOS>ATOM
      1 O1         -9.6564    0.4984   54.0817 O.2     1  ZINC000656860804   -0.5400
      2 C2         -9.3209    1.4512   53.4104 C.2     1  ZINC000656860804    0.5100
      3 C3         -7.8909    1.9128   53.4839 C.3     1  ZINC000656860804    0.1100
      4 N4         -7.6387    2.8577   52.3858 N.am    1  ZINC000656860804   -1.0000
      5 S5         -6.2443    2.7909   51.4949 S.o2    1  ZINC000656860804    2.6900
      6 O6         -6.1360    1.4566   51.0184 O.2     1  ZINC000656860804   -0.9200
      7 O7         -6.2616    3.9236   50.6370 O.2     1  ZINC000656860804   -0.9300
      8 C8         -4.9011    3.0317   52.6096 C.ar    1  ZINC000656860804   -0.6500
      9 C9         -5.1424    3.4737   53.8965 C.ar    1  ZINC000656860804    0.0100
     10 C10        -4.0881    3.6630   54.7722 C.ar    1  ZINC000656860804   -0.0400
     11 Cl11       -4.3912    4.2178   56.3890 Cl      1  ZINC000656860804   -0.0200
     12 C12        -2.7913    3.4093   54.3589 C.ar    1  ZINC000656860804    0.0200
     13 Cl13       -1.4678    3.6458   55.4572 Cl      1  ZINC000656860804   -0.0100
     14 C14        -2.5507    2.9667   53.0705 C.ar    1  ZINC000656860804   -0.0900
     15 C15        -3.6059    2.7725   52.1980 C.ar    1  ZINC000656860804    0.0100
     16 Br16       -3.2771    2.1677   50.4368 Br      1  ZINC000656860804    0.0100
     17 C17        -8.6766    3.8654   52.1100 C.3     1  ZINC000656860804    0.0900
     18 C18        -9.9609    3.1329   51.7168 C.3     1  ZINC000656860804    0.0800
     19 N19       -10.2353    2.0382   52.6369 N.am    1  ZINC000656860804   -0.7100
     20 H20        -7.7158    2.4079   54.4390 H       1  ZINC000656860804    0.1200
     21 H21        -7.2251    1.0552   53.3878 H       1  ZINC000656860804    0.1200
     22 H22        -6.1540    3.6720   54.2186 H       1  ZINC000656860804    0.1700
     23 H23        -1.5393    2.7691   52.7475 H       1  ZINC000656860804    0.1700
     24 H24        -8.8538    4.4647   53.0031 H       1  ZINC000656860804    0.1000
     25 H25        -8.3554    4.5098   51.2918 H       1  ZINC000656860804    0.1200
     26 H26       -10.7939    3.8356   51.7329 H       1  ZINC000656860804    0.1000
     27 H27        -9.8506    2.7313   50.7094 H       1  ZINC000656860804    0.0800
     28 H28       -11.1488    1.7171   52.6962 H       1  ZINC000656860804    0.4000
@<TRIPOS>BOND
     1     1     2    2
     2     2    19   am
     3     2     3    1
     4     3     4    1
     5     3    20    1
     6     3    21    1
     7     4     5   am
     8     4    17    1
     9     5     6    2
    10     5     7    2
    11     5     8    1
    12     8    15   ar
    13     8     9   ar
    14     9    10   ar
    15     9    22    1
    16    10    11    1
    17    10    12   ar
    18    12    13    1
    19    12    14   ar
    20    14    15   ar
    21    14    23    1
    22    15    16    1
    23    17    18    1
    24    17    24    1
    25    17    25    1
    26    18    19    1
    27    18    26    1
    28    18    27    1
    29    19    28    1
@<TRIPOS>SUBSTRUCTURE
     1 ZINC000656860804        1 TEMP              0 ****  ****    0 ROOT


##########                                Name:    ZINC000130059363
##########                DOCK_Rotatable_Bonds:                   4
##########                         Heavy_Atoms:                  29
##########                    Molecular_Weight:             389.497
##########                DOCK_Rotatable_Bonds:                   4
##########                       Formal_Charge:          -0.0100003
##########                     HBond_Acceptors:                   5
##########                        HBond_Donors:                   0
##########                         Heavy_Atoms:                  29
##########                          Grid_Score:          -21.599903
##########                     Grid_vdw_energy:          -21.426556
##########                      Grid_es_energy:           -0.173347
##########           Internal_energy_repulsive:           29.545071

@<TRIPOS>MOLECULE
ZINC000130059363
 56 60 1 0 0
SMALL
USER_CHARGES


@<TRIPOS>ATOM
      1 C1        -15.0155   -3.3793   56.7541 C.3     1  ZINC000130059363   -0.1200
      2 C2        -15.5761   -2.1169   56.1515 C.ar    1  ZINC000130059363    0.1900
      3 N3        -16.3282   -2.1880   55.0752 N.ar    1  ZINC000130059363   -0.4800
      4 C4        -16.8441   -1.1029   54.5097 C.ar    1  ZINC000130059363    0.2000
      5 C5        -17.6858   -1.2396   53.2974 C.ar    1  ZINC000130059363   -0.0600
      6 C6        -18.2294   -0.1075   52.6916 C.ar    1  ZINC000130059363   -0.1000
      7 C7        -19.0119   -0.2410   51.5628 C.ar    1  ZINC000130059363   -0.1200
      8 C8        -19.2577   -1.4948   51.0324 C.ar    1  ZINC000130059363   -0.1000
      9 C9        -18.7214   -2.6216   51.6294 C.ar    1  ZINC000130059363   -0.1300
     10 C10       -17.9322   -2.5001   52.7550 C.ar    1  ZINC000130059363   -0.0700
     11 C11       -16.6045    0.1638   55.0421 C.ar    1  ZINC000130059363   -0.1800
     12 C12       -15.8197    0.2827   56.1720 C.ar    1  ZINC000130059363   -0.0400
     13 C13       -15.2961   -0.8842   56.7453 C.ar    1  ZINC000130059363   -0.1900
     14 C14       -14.4512   -0.8103   57.9546 C.2     1  ZINC000130059363    0.5700
     15 O15       -14.9618   -0.8606   59.0568 O.2     1  ZINC000130059363   -0.5200
     16 N16       -13.1143   -0.6872   57.8362 N.am    1  ZINC000130059363   -0.6000
     17 C17       -12.2574   -0.6184   59.0284 C.3     1  ZINC000130059363    0.1000
     18 C18       -11.1909   -1.7124   58.9217 C.3     1  ZINC000130059363   -0.1500
     19 C19       -10.4420   -1.5778   57.6007 C.3     1  ZINC000130059363    0.1500
     20 H20        -9.7175   -2.3898   57.5370 H       1  ZINC000130059363    0.0700
     21 C21       -11.3992   -1.7009   56.4168 C.3     1  ZINC000130059363   -0.1100
     22 H22       -11.8484   -2.6939   56.4007 H       1  ZINC000130059363    0.1000
     23 C23       -10.5945   -1.4646   55.1288 C.3     1  ZINC000130059363   -0.1200
     24 C24       -10.1545    0.0013   55.1021 C.3     1  ZINC000130059363   -0.1400
     25 C25        -9.5438    0.3834   56.4195 C.2     1  ZINC000130059363    0.5200
     26 O26        -8.8689    1.3898   56.4690 O.2     1  ZINC000130059363   -0.5400
     27 N27        -9.7177   -0.3184   57.5331 N.am    1  ZINC000130059363   -0.5700
     28 C28        -9.1198    0.1879   58.7711 C.3     1  ZINC000130059363    0.0700
     29 C29        -8.1469   -0.7308   59.5129 C.3     1  ZINC000130059363   -0.1800
     30 C30        -7.6203    0.4916   58.7586 C.3     1  ZINC000130059363   -0.1600
     31 C31       -12.4806   -0.6251   56.5134 C.3     1  ZINC000130059363    0.1100
     32 H32       -15.6691   -3.7198   57.5572 H       1  ZINC000130059363    0.0800
     33 H33       -14.9508   -4.1506   55.9866 H       1  ZINC000130059363    0.0800
     34 H34       -14.0213   -3.1805   57.1542 H       1  ZINC000130059363    0.1000
     35 H35       -18.0388    0.8718   53.1051 H       1  ZINC000130059363    0.1300
     36 H36       -19.4335    0.6351   51.0926 H       1  ZINC000130059363    0.1300
     37 H37       -19.8710   -1.5945   50.1491 H       1  ZINC000130059363    0.1300
     38 H38       -18.9169   -3.5980   51.2112 H       1  ZINC000130059363    0.1300
     39 H39       -17.5140   -3.3805   53.2203 H       1  ZINC000130059363    0.1400
     40 H40       -17.0275    1.0413   54.5759 H       1  ZINC000130059363    0.1400
     41 H41       -15.6173    1.2509   56.6056 H       1  ZINC000130059363    0.1400
     42 H42       -11.7770    0.3588   59.0791 H       1  ZINC000130059363    0.0700
     43 H43       -12.8594   -0.7787   59.9229 H       1  ZINC000130059363    0.0900
     44 H44       -10.4874   -1.6144   59.7486 H       1  ZINC000130059363    0.0900
     45 H45       -11.6694   -2.6906   58.9689 H       1  ZINC000130059363    0.0800
     46 H46        -9.7176   -2.1120   55.1191 H       1  ZINC000130059363    0.0800
     47 H47       -11.2188   -1.6770   54.2610 H       1  ZINC000130059363    0.0900
     48 H48        -9.4204    0.1435   54.3090 H       1  ZINC000130059363    0.1000
     49 H49       -11.0200    0.6346   54.9080 H       1  ZINC000130059363    0.1000
     50 H50        -9.7593    0.8345   59.3718 H       1  ZINC000130059363    0.1100
     51 H51        -8.1464   -0.6887   60.6022 H       1  ZINC000130059363    0.1100
     52 H52        -7.9518   -1.7120   59.0801 H       1  ZINC000130059363    0.1000
     53 H53        -7.0787    0.3148   57.8294 H       1  ZINC000130059363    0.1000
     54 H54        -7.2733    1.3380   59.3515 H       1  ZINC000130059363    0.1000
     55 H55       -13.2308   -0.7922   55.7405 H       1  ZINC000130059363    0.1000
     56 H56       -12.0295    0.3580   56.3780 H       1  ZINC000130059363    0.0700
@<TRIPOS>BOND
     1     1     2    1
     2     1    32    1
     3     1    33    1
     4     1    34    1
     5     2    13   ar
     6     2     3   ar
     7     3     4   ar
     8     4     5    1
     9     4    11   ar
    10     5    10   ar
    11     5     6   ar
    12     6     7   ar
    13     6    35    1
    14     7     8   ar
    15     7    36    1
    16     8     9   ar
    17     8    37    1
    18     9    10   ar
    19     9    38    1
    20    10    39    1
    21    11    12   ar
    22    11    40    1
    23    12    13   ar
    24    12    41    1
    25    13    14    1
    26    14    15    2
    27    14    16   am
    28    16    31    1
    29    16    17    1
    30    17    18    1
    31    17    42    1
    32    17    43    1
    33    18    19    1
    34    18    44    1
    35    18    45    1
    36    19    20    1
    37    19    27    1
    38    19    21    1
    39    21    22    1
    40    21    23    1
    41    21    31    1
    42    23    24    1
    43    23    46    1
    44    23    47    1
    45    24    25    1
    46    24    48    1
    47    24    49    1
    48    25    26    2
    49    25    27   am
    50    27    28    1
    51    28    30    1
    52    28    29    1
    53    28    50    1
    54    29    30    1
    55    29    51    1
    56    29    52    1
    57    30    53    1
    58    30    54    1
    59    31    55    1
    60    31    56    1
@<TRIPOS>SUBSTRUCTURE
     1 ZINC000130059363        1 TEMP              0 ****  ****    0 ROOT


##########                                Name:    ZINC000550782577
##########                DOCK_Rotatable_Bonds:                   5
##########                         Heavy_Atoms:                  25
##########                    Molecular_Weight:              338.45
##########                DOCK_Rotatable_Bonds:                   5
##########                       Formal_Charge:         -0.00999954
##########                     HBond_Acceptors:                   4
##########                        HBond_Donors:                   0
##########                         Heavy_Atoms:                  25
##########                          Grid_Score:          -21.382977
##########                     Grid_vdw_energy:          -20.571995
##########                      Grid_es_energy:           -0.810983
##########           Internal_energy_repulsive:           23.352633

@<TRIPOS>MOLECULE
ZINC000550782577
 51 53 1 0 0
SMALL
USER_CHARGES


@<TRIPOS>ATOM
      1 C1         -9.6521    2.3202   56.9504 C.3     1  ZINC000550782577    0.0700
      2 N2         -8.3381    1.6954   57.1212 N.am    1  ZINC000550782577   -0.5900
      3 C3         -8.1408    0.8000   58.1090 C.2     1  ZINC000550782577    0.5800
      4 O4         -7.0506    0.2816   58.2507 O.2     1  ZINC000550782577   -0.5400
      5 C5         -9.2513    0.4481   59.0208 C.ar    1  ZINC000550782577    0.0300
      6 C6         -9.5224    1.2584   60.1226 C.ar    1  ZINC000550782577   -0.0600
      7 C7        -10.5635    0.9191   60.9683 C.ar    1  ZINC000550782577   -0.1200
      8 C8        -11.3032   -0.2251   60.6835 C.ar    1  ZINC000550782577    0.1100
      9 O9        -12.3331   -0.5943   61.4865 O.3     1  ZINC000550782577   -0.3000
     10 C10       -13.6326   -0.1127   61.1379 C.3     1  ZINC000550782577    0.1000
     11 C11       -14.5068   -1.2846   60.6872 C.3     1  ZINC000550782577   -0.2000
     12 C12       -14.2702    0.5608   62.3548 C.3     1  ZINC000550782577   -0.1400
     13 C13       -13.5119    0.9014   59.9986 C.3     1  ZINC000550782577   -0.2000
     14 C14       -10.9744   -0.9865   59.5645 C.ar    1  ZINC000550782577   -0.0100
     15 N15        -9.9830   -0.6336   58.7785 N.ar    1  ZINC000550782577   -0.4100
     16 C16        -7.2383    2.0439   56.2181 C.3     1  ZINC000550782577    0.1400
     17 H17        -6.7012    1.1408   55.9285 H       1  ZINC000550782577    0.1100
     18 C18        -7.7959    2.7362   54.9689 C.3     1  ZINC000550782577   -0.1300
     19 C19        -6.6676    2.8700   53.9481 C.3     1  ZINC000550782577   -0.0800
     20 C20        -5.4538    3.4992   54.5802 C.ar    1  ZINC000550782577   -0.0800
     21 C21        -4.4909    4.0373   53.7365 C.ar    1  ZINC000550782577   -0.1200
     22 C22        -3.3536    4.6226   54.2537 C.ar    1  ZINC000550782577   -0.1200
     23 C23        -3.1698    4.6735   55.6227 C.ar    1  ZINC000550782577   -0.1200
     24 C24        -4.1264    4.1416   56.4628 C.ar    1  ZINC000550782577   -0.1200
     25 C25        -5.2735    3.5554   55.9443 C.ar    1  ZINC000550782577   -0.0700
     26 C26        -6.2833    3.0080   56.9190 C.3     1  ZINC000550782577   -0.0900
     27 H27        -9.7412    3.1698   57.6274 H       1  ZINC000550782577    0.0600
     28 H28        -9.7607    2.6626   55.9214 H       1  ZINC000550782577    0.0600
     29 H29       -10.4322    1.5930   57.1755 H       1  ZINC000550782577    0.1100
     30 H30        -8.9274    2.1392   60.3135 H       1  ZINC000550782577    0.1600
     31 H31       -10.7967    1.5276   61.8296 H       1  ZINC000550782577    0.1500
     32 H32       -14.9350   -1.7756   61.5610 H       1  ZINC000550782577    0.0700
     33 H33       -15.3091   -0.9148   60.0486 H       1  ZINC000550782577    0.0800
     34 H34       -13.8992   -1.9982   60.1306 H       1  ZINC000550782577    0.0800
     35 H35       -13.6474    1.3957   62.6759 H       1  ZINC000550782577    0.0700
     36 H36       -15.2614    0.9281   62.0888 H       1  ZINC000550782577    0.0800
     37 H37       -14.3562   -0.1616   63.1664 H       1  ZINC000550782577    0.0700
     38 H38       -13.0619    0.4204   59.1302 H       1  ZINC000550782577    0.0800
     39 H39       -14.5027    1.2722   59.7359 H       1  ZINC000550782577    0.0800
     40 H40       -12.8852    1.7340   60.3181 H       1  ZINC000550782577    0.0700
     41 H41       -11.5444   -1.8754   59.3380 H       1  ZINC000550782577    0.1900
     42 H42        -8.6033    2.1377   54.5471 H       1  ZINC000550782577    0.0700
     43 H43        -8.1707    3.7249   55.2336 H       1  ZINC000550782577    0.0700
     44 H44        -6.4051    1.8816   53.5710 H       1  ZINC000550782577    0.0800
     45 H45        -7.0048    3.4925   53.1193 H       1  ZINC000550782577    0.0800
     46 H46        -4.6334    3.9970   52.6667 H       1  ZINC000550782577    0.1200
     47 H47        -2.6093    5.0392   53.5912 H       1  ZINC000550782577    0.1200
     48 H48        -2.2802    5.1279   56.0334 H       1  ZINC000550782577    0.1200
     49 H49        -3.9818    4.1816   57.5323 H       1  ZINC000550782577    0.1200
     50 H50        -6.8545    3.8324   57.3457 H       1  ZINC000550782577    0.0800
     51 H51        -5.7623    2.4810   57.7183 H       1  ZINC000550782577    0.0800
@<TRIPOS>BOND
     1     1     2    1
     2     1    27    1
     3     1    28    1
     4     1    29    1
     5     2     3   am
     6     2    16    1
     7     3     4    2
     8     3     5    1
     9     5    15   ar
    10     5     6   ar
    11     6     7   ar
    12     6    30    1
    13     7     8   ar
    14     7    31    1
    15     8     9    1
    16     8    14   ar
    17     9    10    1
    18    10    11    1
    19    10    12    1
    20    10    13    1
    21    11    32    1
    22    11    33    1
    23    11    34    1
    24    12    35    1
    25    12    36    1
    26    12    37    1
    27    13    38    1
    28    13    39    1
    29    13    40    1
    30    14    15   ar
    31    14    41    1
    32    16    17    1
    33    16    26    1
    34    16    18    1
    35    18    19    1
    36    18    42    1
    37    18    43    1
    38    19    20    1
    39    19    44    1
    40    19    45    1
    41    20    25   ar
    42    20    21   ar
    43    21    22   ar
    44    21    46    1
    45    22    23   ar
    46    22    47    1
    47    23    24   ar
    48    23    48    1
    49    24    25   ar
    50    24    49    1
    51    25    26    1
    52    26    50    1
    53    26    51    1
@<TRIPOS>SUBSTRUCTURE
     1 ZINC000550782577        1 TEMP              0 ****  ****    0 ROOT


##########                                Name:    ZINC000154446008
##########                DOCK_Rotatable_Bonds:                   5
##########                         Heavy_Atoms:                  24
##########                    Molecular_Weight:              349.41
##########                DOCK_Rotatable_Bonds:                   5
##########                       Formal_Charge:          -0.0199999
##########                     HBond_Acceptors:                   8
##########                        HBond_Donors:                   0
##########                         Heavy_Atoms:                  24
##########                          Grid_Score:          -20.671396
##########                     Grid_vdw_energy:          -20.655058
##########                      Grid_es_energy:           -0.016339
##########           Internal_energy_repulsive:           13.829045

@<TRIPOS>MOLECULE
ZINC000154446008
 43 45 1 0 0
SMALL
USER_CHARGES


@<TRIPOS>ATOM
      1 O1         -7.0916    4.5167   50.6581 O.2     1  ZINC000154446008   -0.5000
      2 C2         -6.6265    3.6116   51.3258 C.2     1  ZINC000154446008    0.5900
      3 C3         -5.1842    3.3511   51.3039 C.2     1  ZINC000154446008   -0.2300
      4 C4         -4.5809    2.2813   50.7049 C.2     1  ZINC000154446008   -0.0600
      5 C5         -3.2126    2.2844   50.8373 C.2     1  ZINC000154446008   -0.0500
      6 C6         -2.7107    3.3197   51.5205 C.2     1  ZINC000154446008   -0.2100
      7 N7         -1.2698    3.5298   51.7868 N.pl3   1  ZINC000154446008    0.0500
      8 O8         -0.4576    2.6921   51.4376 O.2     1  ZINC000154446008   -0.1300
      9 O9         -0.8965    4.5403   52.3553 O.2     1  ZINC000154446008   -0.1500
     10 S10        -3.9527    4.3691   52.0378 S.3     1  ZINC000154446008    0.3500
     11 N11        -7.4370    2.8525   52.0896 N.am    1  ZINC000154446008   -0.6100
     12 C12        -6.8879    1.7641   52.9103 C.3     1  ZINC000154446008    0.0800
     13 C13        -7.3206    1.9813   54.3655 C.3     1  ZINC000154446008    0.0900
     14 N14        -8.7692    2.2275   54.3929 N.am    1  ZINC000154446008   -0.6100
     15 C15        -9.5796    1.4689   55.1574 C.2     1  ZINC000154446008    0.5500
     16 O16        -9.1135    0.5713   55.8328 O.2     1  ZINC000154446008   -0.5300
     17 C17       -11.0277    1.7267   55.1750 C.2     1  ZINC000154446008   -0.1500
     18 C18       -11.4816    2.6573   55.9865 C.2     1  ZINC000154446008   -0.1100
     19 C19       -12.9329    3.0183   56.1141 C.3     1  ZINC000154446008   -0.1000
     20 C20       -13.7154    2.4874   54.9111 C.3     1  ZINC000154446008   -0.1200
     21 C21       -13.3614    1.0082   54.7144 C.3     1  ZINC000154446008   -0.1200
     22 C22       -11.9012    0.9172   54.2615 C.3     1  ZINC000154446008   -0.0700
     23 C23        -9.3184    3.3159   53.5722 C.3     1  ZINC000154446008    0.1000
     24 C24        -8.8850    3.1023   52.1213 C.3     1  ZINC000154446008    0.1000
     25 H25        -5.1249    1.5102   50.1798 H       1  ZINC000154446008    0.1800
     26 H26        -2.5883    1.5078   50.4206 H       1  ZINC000154446008    0.1800
     27 H27        -7.2709    0.8079   52.5536 H       1  ZINC000154446008    0.0900
     28 H28        -5.7998    1.7715   52.8472 H       1  ZINC000154446008    0.0900
     29 H29        -7.0894    1.0925   54.9526 H       1  ZINC000154446008    0.1100
     30 H30        -6.7953    2.8425   54.7787 H       1  ZINC000154446008    0.0800
     31 H31       -10.7688    3.1922   56.5966 H       1  ZINC000154446008    0.1100
     32 H32       -13.3350    2.5811   57.0280 H       1  ZINC000154446008    0.0900
     33 H33       -13.0329    4.1027   56.1601 H       1  ZINC000154446008    0.0800
     34 H34       -14.7848    2.5864   55.0971 H       1  ZINC000154446008    0.0700
     35 H35       -13.4423    3.0511   54.0190 H       1  ZINC000154446008    0.0700
     36 H36       -13.4906    0.4725   55.6547 H       1  ZINC000154446008    0.0700
     37 H37       -14.0082    0.5753   53.9512 H       1  ZINC000154446008    0.0700
     38 H38       -11.8148    1.2938   53.2423 H       1  ZINC000154446008    0.0800
     39 H39       -11.5787   -0.1237   54.2885 H       1  ZINC000154446008    0.0700
     40 H40       -10.4065    3.3085   53.6353 H       1  ZINC000154446008    0.1100
     41 H41        -8.9354    4.2721   53.9289 H       1  ZINC000154446008    0.0800
     42 H42        -9.1167    3.9917   51.5354 H       1  ZINC000154446008    0.1100
     43 H43        -9.4085    2.2411   51.7061 H       1  ZINC000154446008    0.0800
@<TRIPOS>BOND
     1     1     2    2
     2     2     3    1
     3     2    11   am
     4     3    10    1
     5     3     4    2
     6     4     5    1
     7     4    25    1
     8     5     6    2
     9     5    26    1
    10     6     7    1
    11     6    10    1
    12     7     8    2
    13     7     9    2
    14    11    24    1
    15    11    12    1
    16    12    13    1
    17    12    27    1
    18    12    28    1
    19    13    14    1
    20    13    29    1
    21    13    30    1
    22    14    15   am
    23    14    23    1
    24    15    16    2
    25    15    17    1
    26    17    22    1
    27    17    18    2
    28    18    19    1
    29    18    31    1
    30    19    20    1
    31    19    32    1
    32    19    33    1
    33    20    21    1
    34    20    34    1
    35    20    35    1
    36    21    22    1
    37    21    36    1
    38    21    37    1
    39    22    38    1
    40    22    39    1
    41    23    24    1
    42    23    40    1
    43    23    41    1
    44    24    42    1
    45    24    43    1
@<TRIPOS>SUBSTRUCTURE
     1 ZINC000154446008        1 TEMP              0 ****  ****    0 ROOT


##########                                Name:    ZINC000820901229
##########                DOCK_Rotatable_Bonds:                   3
##########                         Heavy_Atoms:                  18
##########                    Molecular_Weight:             331.233
##########                DOCK_Rotatable_Bonds:                   3
##########                       Formal_Charge:           0.0099999
##########                     HBond_Acceptors:                   5
##########                        HBond_Donors:                   1
##########                         Heavy_Atoms:                  18
##########                          Grid_Score:          -20.613447
##########                     Grid_vdw_energy:          -20.415565
##########                      Grid_es_energy:           -0.197882
##########           Internal_energy_repulsive:            3.544672

@<TRIPOS>MOLECULE
ZINC000820901229
 33 35 1 0 0
SMALL
USER_CHARGES


@<TRIPOS>ATOM
      1 O1         -0.4920    2.0770   49.2972 O.2     1  ZINC000820901229   -0.5300
      2 C2         -0.5288    2.5060   50.4348 C.2     1  ZINC000820901229    0.6000
      3 N3          0.6139    2.8419   51.0656 N.am    1  ZINC000820901229   -0.7100
      4 C4          1.9008    2.6847   50.3833 C.3     1  ZINC000820901229    0.1600
      5 H5          1.8364    3.0890   49.3730 H       1  ZINC000820901229    0.1000
      6 C6          2.2851    1.1974   50.3279 C.3     1  ZINC000820901229   -0.1300
      7 C7          3.6519    0.9972   49.6801 C.3     1  ZINC000820901229   -0.1100
      8 C8          4.7341    1.8332   50.3833 C.3     1  ZINC000820901229   -0.1100
      9 C9          4.2942    3.2815   50.3257 C.3     1  ZINC000820901229    0.0800
     10 H10         4.0959    3.5641   49.2918 H       1  ZINC000820901229    0.0700
     11 O11         5.1388    4.2519   50.9342 O.3     1  ZINC000820901229   -0.3700
     12 C12         4.3034    5.4235   51.1166 C.3     1  ZINC000820901229    0.0500
     13 C13         2.8405    4.9249   51.2419 C.3     1  ZINC000820901229   -0.1500
     14 C14         2.9888    3.4052   51.1598 C.3     1  ZINC000820901229   -0.1400
     15 H15         3.1119    2.9734   52.1530 H       1  ZINC000820901229    0.0900
     16 C16        -1.8222    2.6640   51.1207 C.2     1  ZINC000820901229    0.0100
     17 C17        -1.9303    2.9907   52.4278 C.2     1  ZINC000820901229   -0.2200
     18 S18        -3.5868    3.0763   52.8407 S.3     1  ZINC000820901229    0.3100
     19 C19        -4.0405    2.6711   51.2450 C.2     1  ZINC000820901229   -0.0100
     20 Br20       -5.8250    2.5012   50.6428 Br      1  ZINC000820901229    0.0700
     21 N21        -2.9986    2.5034   50.5076 N.2     1  ZINC000820901229   -0.4100
     22 H22         0.5843    3.1878   51.9713 H       1  ZINC000820901229    0.4100
     23 H23         2.3095    0.7979   51.3417 H       1  ZINC000820901229    0.0700
     24 H24         1.5348    0.6568   49.7511 H       1  ZINC000820901229    0.0700
     25 H25         3.9226   -0.0571   49.7374 H       1  ZINC000820901229    0.0800
     26 H26         3.5969    1.2936   48.6327 H       1  ZINC000820901229    0.0700
     27 H27         4.8308    1.5162   51.4218 H       1  ZINC000820901229    0.0700
     28 H28         5.6873    1.7145   49.8682 H       1  ZINC000820901229    0.0800
     29 H29         4.5954    5.9498   52.0253 H       1  ZINC000820901229    0.0900
     30 H30         4.3978    6.0845   50.2550 H       1  ZINC000820901229    0.0600
     31 H31         2.4150    5.2165   52.2022 H       1  ZINC000820901229    0.0800
     32 H32         2.2328    5.3027   50.4196 H       1  ZINC000820901229    0.0800
     33 H33        -1.1049    3.1680   53.1014 H       1  ZINC000820901229    0.2000
@<TRIPOS>BOND
     1     1     2    2
     2     2     3   am
     3     2    16    1
     4     3     4    1
     5     3    22    1
     6     4     5    1
     7     4    14    1
     8     4     6    1
     9     6     7    1
    10     6    23    1
    11     6    24    1
    12     7     8    1
    13     7    25    1
    14     7    26    1
    15     8     9    1
    16     8    27    1
    17     8    28    1
    18     9    10    1
    19     9    14    1
    20     9    11    1
    21    11    12    1
    22    12    13    1
    23    12    29    1
    24    12    30    1
    25    13    14    1
    26    13    31    1
    27    13    32    1
    28    14    15    1
    29    16    21    1
    30    16    17    2
    31    17    18    1
    32    17    33    1
    33    18    19    1
    34    19    20    1
    35    19    21    2
@<TRIPOS>SUBSTRUCTURE
     1 ZINC000820901229        1 TEMP              0 ****  ****    0 ROOT


##########                                Name:    ZINC000431691749
##########                DOCK_Rotatable_Bonds:                   4
##########                         Heavy_Atoms:                  24
##########                    Molecular_Weight:             328.454
##########                DOCK_Rotatable_Bonds:                   4
##########                       Formal_Charge:         -0.00999957
##########                     HBond_Acceptors:                   4
##########                        HBond_Donors:                   0
##########                         Heavy_Atoms:                  24
##########                          Grid_Score:          -19.834627
##########                     Grid_vdw_energy:          -19.766850
##########                      Grid_es_energy:           -0.067777
##########           Internal_energy_repulsive:          132.711914

@<TRIPOS>MOLECULE
ZINC000431691749
 52 54 1 0 0
SMALL
USER_CHARGES


@<TRIPOS>ATOM
      1 C1         -0.8653    3.3445   51.8198 C.3     1  ZINC000431691749   -0.1200
      2 C2         -1.9200    3.5427   52.8778 C.ar    1  ZINC000431691749   -0.0800
      3 C3         -1.5592    3.9691   54.1419 C.ar    1  ZINC000431691749   -0.1200
      4 C4         -2.5268    4.1509   55.1126 C.ar    1  ZINC000431691749   -0.1100
      5 C5         -3.8550    3.9066   54.8186 C.ar    1  ZINC000431691749   -0.1100
      6 C6         -4.2161    3.4808   53.5538 C.ar    1  ZINC000431691749   -0.0800
      7 C7         -5.6643    3.2141   53.2333 C.3     1  ZINC000431691749    0.2000
      8 H8         -5.7851    2.1717   52.9384 H       1  ZINC000431691749    0.1100
      9 N9         -6.4841    3.4848   54.4168 N.am    1  ZINC000431691749   -0.5700
     10 C10        -6.4959    4.6597   55.0770 C.2     1  ZINC000431691749    0.5200
     11 O11        -5.8544    5.6541   54.8135 O.2     1  ZINC000431691749   -0.4400
     12 C12        -7.4788    4.4795   56.2168 C.3     1  ZINC000431691749    0.0900
     13 H13        -6.9785    4.6019   57.1775 H       1  ZINC000431691749    0.1300
     14 C14        -8.6404    5.4668   56.0870 C.3     1  ZINC000431691749   -0.1500
     15 N15        -7.9510    3.0940   56.0510 N.am    1  ZINC000431691749   -0.6000
     16 C16        -8.9247    2.3944   56.8929 C.3     1  ZINC000431691749    0.1500
     17 C17        -8.4191    1.0441   57.4275 C.3     1  ZINC000431691749   -0.1600
     18 C18        -7.8568    1.8200   58.6302 C.3     1  ZINC000431691749   -0.1400
     19 C19        -8.9371    2.8784   58.3525 C.3     1  ZINC000431691749   -0.1500
     20 C20        -7.3180    2.5983   54.9725 C.2     1  ZINC000431691749    0.7000
     21 O21        -7.4799    1.4688   54.5539 O.2     1  ZINC000431691749   -0.5300
     22 C22        -6.1087    4.1235   52.0860 C.3     1  ZINC000431691749   -0.0700
     23 C23        -5.1986    5.3519   52.0271 C.3     1  ZINC000431691749   -0.1400
     24 C24        -6.0185    3.3581   50.7643 C.3     1  ZINC000431691749   -0.1400
     25 C25        -7.5535    4.5699   52.3193 C.3     1  ZINC000431691749   -0.1600
     26 C26        -3.2492    3.3033   52.5822 C.ar    1  ZINC000431691749   -0.1100
     27 H27        -0.7219    4.2753   51.2709 H       1  ZINC000431691749    0.0700
     28 H28         0.0728    3.0529   52.2921 H       1  ZINC000431691749    0.0700
     29 H29        -1.1840    2.5620   51.1311 H       1  ZINC000431691749    0.0700
     30 H30        -0.5213    4.1601   54.3717 H       1  ZINC000431691749    0.1200
     31 H31        -2.2447    4.4835   56.1007 H       1  ZINC000431691749    0.1200
     32 H32        -4.6109    4.0480   55.5770 H       1  ZINC000431691749    0.1100
     33 H33        -9.1429    5.3132   55.1320 H       1  ZINC000431691749    0.0700
     34 H34        -9.3480    5.3042   56.9002 H       1  ZINC000431691749    0.0800
     35 H35        -8.2581    6.4863   56.1367 H       1  ZINC000431691749    0.0800
     36 H36        -9.9154    2.3435   56.4412 H       1  ZINC000431691749    0.1000
     37 H37        -9.2187    0.3514   57.6899 H       1  ZINC000431691749    0.0900
     38 H38        -7.6502    0.5879   56.8039 H       1  ZINC000431691749    0.0700
     39 H39        -7.9854    1.3038   59.5815 H       1  ZINC000431691749    0.0700
     40 H40        -6.8403    2.1833   58.4788 H       1  ZINC000431691749    0.0800
     41 H41        -8.5866    3.9031   58.4758 H       1  ZINC000431691749    0.1000
     42 H42        -9.8784    2.6872   58.8679 H       1  ZINC000431691749    0.0900
     43 H43        -4.1693    5.0339   51.8609 H       1  ZINC000431691749    0.0600
     44 H44        -5.5151    5.9997   51.2097 H       1  ZINC000431691749    0.0600
     45 H45        -5.2628    5.8972   52.9687 H       1  ZINC000431691749    0.0600
     46 H46        -6.6669    2.4829   50.8063 H       1  ZINC000431691749    0.0500
     47 H47        -6.3351    4.0059   49.9469 H       1  ZINC000431691749    0.0600
     48 H48        -4.9893    3.0401   50.5981 H       1  ZINC000431691749    0.0500
     49 H49        -7.7791    4.5281   53.3848 H       1  ZINC000431691749    0.0700
     50 H50        -7.6805    5.5913   51.9608 H       1  ZINC000431691749    0.0400
     51 H51        -8.2300    3.9081   51.7784 H       1  ZINC000431691749    0.1000
     52 H52        -3.5313    2.9708   51.5941 H       1  ZINC000431691749    0.1300
@<TRIPOS>BOND
     1     1     2    1
     2     1    27    1
     3     1    28    1
     4     1    29    1
     5     2    26   ar
     6     2     3   ar
     7     3     4   ar
     8     3    30    1
     9     4     5   ar
    10     4    31    1
    11     5     6   ar
    12     5    32    1
    13     6     7    1
    14     6    26   ar
    15     7     8    1
    16     7     9    1
    17     7    22    1
    18     9    20   am
    19     9    10   am
    20    10    11    2
    21    10    12    1
    22    12    13    1
    23    12    14    1
    24    12    15    1
    25    14    33    1
    26    14    34    1
    27    14    35    1
    28    15    16    1
    29    15    20   am
    30    16    19    1
    31    16    17    1
    32    16    36    1
    33    17    18    1
    34    17    37    1
    35    17    38    1
    36    18    19    1
    37    18    39    1
    38    18    40    1
    39    19    41    1
    40    19    42    1
    41    20    21    2
    42    22    23    1
    43    22    24    1
    44    22    25    1
    45    23    43    1
    46    23    44    1
    47    23    45    1
    48    24    46    1
    49    24    47    1
    50    24    48    1
    51    25    49    1
    52    25    50    1
    53    25    51    1
    54    26    52    1
@<TRIPOS>SUBSTRUCTURE
     1 ZINC000431691749        1 TEMP              0 ****  ****    0 ROOT


##########                                Name:    ZINC000569288350
##########                DOCK_Rotatable_Bonds:                   3
##########                         Heavy_Atoms:                  19
##########                    Molecular_Weight:             393.559
##########                DOCK_Rotatable_Bonds:                   3
##########                       Formal_Charge:           0.0299999
##########                     HBond_Acceptors:                   5
##########                        HBond_Donors:                   1
##########                         Heavy_Atoms:                  19
##########                          Grid_Score:          -16.172363
##########                     Grid_vdw_energy:          -14.474694
##########                      Grid_es_energy:           -1.697670
##########           Internal_energy_repulsive:           21.304840

@<TRIPOS>MOLECULE
ZINC000569288350
 26 27 1 0 0
SMALL
USER_CHARGES


@<TRIPOS>ATOM
      1 O1          2.2894    4.7218   50.7550 O.2     1  ZINC000569288350   -0.4800
      2 C2          2.2628    4.0756   51.7846 C.2     1  ZINC000569288350    0.5700
      3 N3          1.5833    2.9126   51.8330 N.am    1  ZINC000569288350   -0.6600
      4 C4          0.9040    2.4518   50.7000 C.ar    1  ZINC000569288350    0.1800
      5 C5         -0.4843    2.4323   50.6814 C.ar    1  ZINC000569288350   -0.1200
      6 C6         -1.1536    1.9770   49.5619 C.ar    1  ZINC000569288350   -0.0600
      7 C7         -0.4435    1.5398   48.4594 C.ar    1  ZINC000569288350   -0.1500
      8 C8          0.9415    1.5571   48.4728 C.ar    1  ZINC000569288350    0.1300
      9 F9          1.6327    1.1298   47.3936 F       1  ZINC000569288350   -0.1200
     10 C10         1.6172    2.0181   49.5892 C.ar    1  ZINC000569288350   -0.1000
     11 Cl11        3.3529    2.0409   49.6070 Cl      1  ZINC000569288350   -0.0400
     12 C12         2.9796    4.5618   52.9800 C.ar    1  ZINC000569288350   -0.1400
     13 C13         2.4786    5.6463   53.7073 C.ar    1  ZINC000569288350    0.1400
     14 F14         1.3358    6.2530   53.3186 F       1  ZINC000569288350   -0.1200
     15 C15         3.1567    6.0953   54.8259 C.ar    1  ZINC000569288350   -0.1300
     16 C16         4.3260    5.4750   55.2242 C.ar    1  ZINC000569288350   -0.0600
     17 C17         4.8272    4.4015   54.5083 C.ar    1  ZINC000569288350   -0.0900
     18 C18         4.1592    3.9375   53.3942 C.ar    1  ZINC000569288350   -0.0500
     19 I19         4.9217    2.3123   52.3140 I       1  ZINC000569288350    0.0000
     20 H20         1.5654    2.3952   52.6532 H       1  ZINC000569288350    0.4200
     21 H21        -1.0408    2.7729   51.5422 H       1  ZINC000569288350    0.1600
     22 H22        -2.2335    1.9621   49.5482 H       1  ZINC000569288350    0.1500
     23 H23        -0.9697    1.1837   47.5860 H       1  ZINC000569288350    0.1500
     24 H24         2.7718    6.9325   55.3893 H       1  ZINC000569288350    0.1500
     25 H25         4.8516    5.8300   56.0983 H       1  ZINC000569288350    0.1500
     26 H26         5.7416    3.9225   54.8259 H       1  ZINC000569288350    0.1500
@<TRIPOS>BOND
     1     1     2    2
     2     2     3   am
     3     2    12    1
     4     3     4    1
     5     3    20    1
     6     4    10   ar
     7     4     5   ar
     8     5     6   ar
     9     5    21    1
    10     6     7   ar
    11     6    22    1
    12     7     8   ar
    13     7    23    1
    14     8     9    1
    15     8    10   ar
    16    10    11    1
    17    12    18   ar
    18    12    13   ar
    19    13    14    1
    20    13    15   ar
    21    15    16   ar
    22    15    24    1
    23    16    17   ar
    24    16    25    1
    25    17    18   ar
    26    17    26    1
    27    18    19    1
@<TRIPOS>SUBSTRUCTURE
     1 ZINC000569288350        1 TEMP              0 ****  ****    0 ROOT

